                                   MODFLOW 6
                U.S. GEOLOGICAL SURVEY MODULAR HYDROLOGIC MODEL
                          GROUNDWATER FLOW MODEL (GWF)
                            VERSION 6.2.1 02/18/2021

   MODFLOW 6 compiled Feb 18 2021 08:24:05 with IFORT compiler (ver. 19.10.2)

This software has been approved for release by the U.S. Geological 
Survey (USGS). Although the software has been subjected to rigorous 
review, the USGS reserves the right to update the software as needed 
pursuant to further analysis and review. No warranty, expressed or 
implied, is made by the USGS or the U.S. Government as to the 
functionality of the software and related material nor shall the 
fact of release constitute any such warranty. Furthermore, the 
software is released on condition that neither the USGS nor the U.S. 
Government shall be held liable for any damages resulting from its 
authorized or unauthorized use. Also refer to the USGS Water 
Resources Software User Rights Notice for complete use, copyright, 
and distribution information.


System command used to initiate simulation:
..\bin\mf6.exe

MODFLOW was compiled using uniform precision.

Real Variables
  KIND: 8
  TINY (smallest non-zero value):    2.225074-308
  HUGE (largest value):    1.797693+308
  PRECISION: 15
  BIT SIZE: 64

Integer Variables
  KIND: 4
  HUGE (largest value): 2147483647
  BIT SIZE: 32

Long Integer Variables
  KIND: 8
  HUGE (largest value): 9223372036854775807
  BIT SIZE: 64

Logical Variables
  KIND: 4
  BIT SIZE: 32
 

 OPENED symp01.dis
 FILE TYPE:DIS6                   UNIT 1005   STATUS:OLD                 
 FORMAT:FORMATTED              ACCESS:SEQUENTIAL          
 ACTION:READ                


 OPENED symp01.ic
 FILE TYPE:IC6                    UNIT 1006   STATUS:OLD                 
 FORMAT:FORMATTED              ACCESS:SEQUENTIAL          
 ACTION:READ                


 OPENED symp01.npf
 FILE TYPE:NPF6                   UNIT 1007   STATUS:OLD                 
 FORMAT:FORMATTED              ACCESS:SEQUENTIAL          
 ACTION:READ                


 OPENED symp01.rcha
 FILE TYPE:RCH6                   UNIT 1008   STATUS:OLD                 
 FORMAT:FORMATTED              ACCESS:SEQUENTIAL          
 ACTION:READ                


 OPENED symp01.riv
 FILE TYPE:RIV6                   UNIT 1009   STATUS:OLD                 
 FORMAT:FORMATTED              ACCESS:SEQUENTIAL          
 ACTION:READ                


 OPENED symp01.oc
 FILE TYPE:OC6                    UNIT 1010   STATUS:OLD                 
 FORMAT:FORMATTED              ACCESS:SEQUENTIAL          
 ACTION:READ                

 NAMEFILE OPTIONS:
    PACKAGE FLOWS WILL BE PRINTED FOR ALL MODEL PACKAGES
    FLOWS WILL BE SAVED TO BUDGET FILE SPECIFIED IN OUTPUT CONTROL

 DIS -- STRUCTURED GRID DISCRETIZATION PACKAGE, VERSION 2 : 3/27/2014 - INPUT READ FROM UNIT 1005


 # File generated by Flopy version 3.3.4 on 08/25/2021 at 10:45:20.
 PROCESSING DISCRETIZATION OPTIONS
 END OF DISCRETIZATION OPTIONS
 MODEL LENGTH UNIT IS UNDEFINED
 PROCESSING DISCRETIZATION DIMENSIONS
    NLAY =       3
    NROW =      15
    NCOL =      10
 END OF DISCRETIZATION DIMENSIONS
 PROCESSING GRIDDATA

                     DELR =   100.0000    

                     DELC =   100.0000    

 TOP ELEVATION OF LAYER 1 =   50.00000    

   MODEL LAYER BOTTOM EL. =   40.00000     FOR LAYER 1

   MODEL LAYER BOTTOM EL. =   35.00000     FOR LAYER 2

   MODEL LAYER BOTTOM EL. =   0.000000     FOR LAYER 3
 END PROCESSING GRIDDATA

 NPF -- NODE PROPERTY FLOW PACKAGE, VERSION 1, 3/30/2015 INPUT READ FROM UNIT 1007


 # File generated by Flopy version 3.3.4 on 08/25/2021 at 10:45:20.
 PROCESSING NPF OPTIONS
    CELL-BY-CELL FLOW INFORMATION WILL BE SAVED TO BINARY FILE WHENEVER ICBCFL IS NOT ZERO.
    SPECIFIC DISCHARGE WILL BE CALCULATED AT CELL CENTERS AND WRITTEN TO DATA-SPDIS IN BUDGET FILE WHEN REQUESTED.
 END OF NPF OPTIONS

 RIV   -- RIV PACKAGE, VERSION 8, 2/22/2014 INPUT READ FROM UNIT 1009
 # File generated by Flopy version 3.3.4 on 08/25/2021 at 10:45:20.

 PROCESSING RIV OPTIONS
    RIV BOUNDARIES HAVE NAMES IN LAST COLUMN.
 END OF RIV OPTIONS

 PROCESSING RIV DIMENSIONS
    MAXBOUND =      10
 END OF RIV DIMENSIONS

 RCH   -- RCH PACKAGE, VERSION 8, 2/22/2014 INPUT READ FROM UNIT 1008
 # File generated by Flopy version 3.3.4 on 08/25/2021 at 10:45:20.

 PROCESSING RCH OPTIONS
    RECHARGE INPUT WILL BE READ AS ARRAY(S).
 END OF RCH OPTIONS

 IC -- INITIAL CONDITIONS PACKAGE, VERSION 8, 3/28/2015 INPUT READ FROM UNIT 1006
 # File generated by Flopy version 3.3.4 on 08/25/2021 at 10:45:20.
 PROCESSING GRIDDATA
 END PROCESSING GRIDDATA
 PROCESSING GRIDDATA

                ICELLTYPE = 1 FOR LAYER 1

                ICELLTYPE = 0 FOR LAYER 2

                ICELLTYPE = 0 FOR LAYER 3

                        K =   2.500000     FOR LAYER 1

                        K =  0.1000000     FOR LAYER 2

                        K =   10.00000     FOR LAYER 3
 K33 not provided.  Assuming K33 = K.
 K22 not provided.  Assuming K22 = K.
 END PROCESSING GRIDDATA
    BINARY GRID INFORMATION WILL BE WRITTEN TO:
      UNIT NUMBER: 1012
      FILE NAME: c:\_data\onedrive\work\symple\course_repo\symple_flopy\models\symple_ex02\symp01.dis.grb

 OPENED c:\_data\onedrive\work\symple\course_repo\symple_flopy\models\symple_ex02\symp01.dis.grb
 FILE TYPE:DATA(BINARY)   UNIT 1012   STATUS:REPLACE             
 FORMAT:UNFORMATTED            ACCESS:STREAM              
 ACTION:READWRITE           

      THE LAST TIME STEP WILL BE PRINTED
      THE LAST TIME STEP WILL BE PRINTED
 # File generated by Flopy version 3.3.4 on 08/25/2021 at 10:45:20.

 PROCESSING OC OPTIONS

    BUDGET INFORMATION WILL BE WRITTEN TO:
      UNIT NUMBER: 1013
      FILE NAME: symp01.cbb

 OPENED symp01.cbb
 FILE TYPE:DATA(BINARY)   UNIT 1013   STATUS:REPLACE             
 FORMAT:UNFORMATTED            ACCESS:STREAM              
 ACTION:READWRITE           

    HEAD INFORMATION WILL BE WRITTEN TO:
      UNIT NUMBER: 1014
      FILE NAME: symp01.hds

 OPENED symp01.hds
 FILE TYPE:DATA(BINARY)   UNIT 1014   STATUS:REPLACE             
 FORMAT:UNFORMATTED            ACCESS:STREAM              
 ACTION:READWRITE           

 END OF OC OPTIONS

start timestep kper="1" kstp="1" mode="normal"


 BEGIN READING OUTPUT CONTROL FOR STRESS PERIOD 1
      ALL TIME STEPS WILL BE SAVED
      ALL TIME STEPS WILL BE SAVED
      THE LAST TIME STEP WILL BE PRINTED

 END READING OUTPUT CONTROL FOR STRESS PERIOD 1

                 RECHARGE =  0.1369863E-03
 UBDSV1 SAVING     FLOW-JA-FACE ON UNIT   1013 AT TIME STEP      1, STRESS PERIOD      1
 UBDSV06 SAVING       DATA-SPDIS IN MODEL SYMP01           PACKAGE NPF             CONNECTED TO MODEL SYMP01           PACKAGE NPF              ON UNIT   1013 AT TIME STEP      1, STRESS PERIOD      1
 UBDSV06 SAVING              RIV IN MODEL SYMP01           PACKAGE SYMP01          CONNECTED TO MODEL SYMP01           PACKAGE RIV_0            ON UNIT   1013 AT TIME STEP      1, STRESS PERIOD      1
 UBDSV06 SAVING              RCH IN MODEL SYMP01           PACKAGE SYMP01          CONNECTED TO MODEL SYMP01           PACKAGE RCH              ON UNIT   1013 AT TIME STEP      1, STRESS PERIOD      1

    CALCULATED INTERCELL FLOW FOR PERIOD 1 STEP 1
(1,1,1): (1,1,2) -4.097823E-05 (1,2,1) -4.908111E-02 (2,1,1) -1.32077
(1,1,2): (1,1,1) 4.097823E-05 (1,1,3) 1.068513E-05 (1,2,2) -4.907546E-02 (2,1,2) -1.32069
(1,1,3): (1,1,2) -1.068513E-05 (1,1,4) 3.515393E-05 (1,2,3) -4.907308E-02 (2,1,3) -1.32068
(1,1,4): (1,1,3) -3.515393E-05 (1,1,5) 5.760554E-05 (1,2,4) -4.907226E-02 (2,1,4) -1.32068
(1,1,5): (1,1,4) -5.760554E-05 (1,1,6) 6.241498E-05 (1,2,5) -4.907024E-02 (2,1,5) -1.32068
(1,1,6): (1,1,5) -6.241498E-05 (1,1,7) 6.336511E-05 (1,2,6) -4.906922E-02 (2,1,6) -1.32070
(1,1,7): (1,1,6) -6.336511E-05 (1,1,8) 5.148341E-05 (1,2,7) -4.907369E-02 (2,1,7) -1.32073
(1,1,8): (1,1,7) -5.148341E-05 (1,1,9) 3.482860E-05 (1,2,8) -4.907901E-02 (2,1,8) -1.32075
(1,1,9): (1,1,8) -3.482860E-05 (1,1,10) 2.251827E-05 (1,2,9) -4.908059E-02 (2,1,9) -1.32076
(1,1,10): (1,1,9) -2.251827E-05 (1,2,10) -4.907043E-02 (2,1,10) -1.32074
(1,2,1): (1,1,1) 4.908111E-02 (1,2,2) -3.534577E-05 (1,3,1) -9.797093E-02 (2,2,1) -1.32079
(1,2,2): (1,1,2) 4.907546E-02 (1,2,1) 3.534577E-05 (1,2,3) 1.308910E-05 (1,3,2) -9.796977E-02 (2,2,2) -1.32071
(1,2,3): (1,1,3) 4.907308E-02 (1,2,2) -1.308910E-05 (1,2,4) 3.601972E-05 (1,3,3) -9.796935E-02 (2,2,3) -1.32068
(1,2,4): (1,1,4) 4.907226E-02 (1,2,3) -3.601972E-05 (1,2,5) 5.967325E-05 (1,3,4) -9.797693E-02 (2,2,4) -1.32069
(1,2,5): (1,1,5) 4.907024E-02 (1,2,4) -5.967325E-05 (1,2,6) 6.349041E-05 (1,3,5) -9.798720E-02 (2,2,5) -1.32071
(1,2,6): (1,1,6) 4.906922E-02 (1,2,5) -6.349041E-05 (1,2,7) 5.896584E-05 (1,3,6) -9.799642E-02 (2,2,6) -1.32075
(1,2,7): (1,1,7) 4.907369E-02 (1,2,6) -5.896584E-05 (1,2,8) 4.624830E-05 (1,3,7) -9.800349E-02 (2,2,7) -1.32080
(1,2,8): (1,1,8) 4.907901E-02 (1,2,7) -4.624830E-05 (1,2,9) 3.333540E-05 (1,3,8) -9.800562E-02 (2,2,8) -1.32083
(1,2,9): (1,1,9) 4.908059E-02 (1,2,8) -3.333540E-05 (1,2,10) 3.275973E-05 (1,3,9) -9.800167E-02 (2,2,9) -1.32083
(1,2,10): (1,1,10) 4.907043E-02 (1,2,9) -3.275973E-05 (1,3,10) -9.798992E-02 (2,2,10) -1.32075
(1,3,1): (1,2,1) 9.797093E-02 (1,3,2) -3.416850E-05 (1,4,1) -0.146685 (2,3,1) -1.32097
(1,3,2): (1,2,2) 9.796977E-02 (1,3,1) 3.416850E-05 (1,3,3) 1.359038E-05 (1,4,2) -0.146678 (2,3,2) -1.32085
(1,3,3): (1,2,3) 9.796935E-02 (1,3,2) -1.359038E-05 (1,3,4) 2.854943E-05 (1,4,3) -0.146674 (2,3,3) -1.32081
(1,3,4): (1,2,4) 9.797693E-02 (1,3,3) -2.854943E-05 (1,3,5) 4.951897E-05 (1,4,4) -0.146683 (2,3,4) -1.32082
(1,3,5): (1,2,5) 9.798720E-02 (1,3,4) -4.951897E-05 (1,3,6) 5.439841E-05 (1,4,5) -0.146699 (2,3,5) -1.32084
(1,3,6): (1,2,6) 9.799642E-02 (1,3,5) -5.439841E-05 (1,3,7) 5.205499E-05 (1,4,6) -0.146713 (2,3,6) -1.32086
(1,3,7): (1,2,7) 9.800349E-02 (1,3,6) -5.205499E-05 (1,3,8) 4.429967E-05 (1,4,7) -0.146722 (2,3,7) -1.32089
(1,3,8): (1,2,8) 9.800562E-02 (1,3,7) -4.429967E-05 (1,3,9) 3.746430E-05 (1,4,8) -0.146721 (2,3,8) -1.32091
(1,3,9): (1,2,9) 9.800167E-02 (1,3,8) -3.746430E-05 (1,3,10) 4.463208E-05 (1,4,9) -0.146713 (2,3,9) -1.32091
(1,3,10): (1,2,10) 9.798992E-02 (1,3,9) -4.463208E-05 (1,4,10) -0.146703 (2,3,10) -1.32081
(1,4,1): (1,3,1) 0.146685 (1,4,2) -2.655822E-05 (1,5,1) -0.195289 (2,4,1) -1.32104
(1,4,2): (1,3,2) 0.146678 (1,4,1) 2.655822E-05 (1,4,3) 1.725009E-05 (1,5,2) -0.195276 (2,4,2) -1.32090
(1,4,3): (1,3,3) 0.146674 (1,4,2) -1.725009E-05 (1,4,4) 1.997915E-05 (1,5,3) -0.195271 (2,4,3) -1.32085
(1,4,4): (1,3,4) 0.146683 (1,4,3) -1.997915E-05 (1,4,5) 3.386779E-05 (1,5,4) -0.195275 (2,4,4) -1.32085
(1,4,5): (1,3,5) 0.146699 (1,4,4) -3.386779E-05 (1,4,6) 4.050301E-05 (1,5,5) -0.195286 (2,4,5) -1.32088
(1,4,6): (1,3,6) 0.146713 (1,4,5) -4.050301E-05 (1,4,7) 4.375915E-05 (1,5,6) -0.195296 (2,4,6) -1.32089
(1,4,7): (1,3,7) 0.146722 (1,4,6) -4.375915E-05 (1,4,8) 4.479140E-05 (1,5,7) -0.195303 (2,4,7) -1.32091
(1,4,8): (1,3,8) 0.146721 (1,4,7) -4.479140E-05 (1,4,9) 4.609853E-05 (1,5,8) -0.195304 (2,4,8) -1.32091
(1,4,9): (1,3,9) 0.146713 (1,4,8) -4.609853E-05 (1,4,10) 5.424174E-05 (1,5,9) -0.195301 (2,4,9) -1.32091
(1,4,10): (1,3,10) 0.146703 (1,4,9) -5.424174E-05 (1,5,10) -0.195302 (2,4,10) -1.32083
(1,5,1): (1,4,1) 0.195289 (1,5,2) -1.339411E-05 (1,6,1) -0.246913 (2,5,1) -1.31804
(1,5,2): (1,4,2) 0.195276 (1,5,1) 1.339411E-05 (1,5,3) 2.234119E-05 (1,6,2) -0.246899 (2,5,2) -1.31792
(1,5,3): (1,4,3) 0.195271 (1,5,2) -2.234119E-05 (1,5,4) 1.651664E-05 (1,6,3) -0.246904 (2,5,3) -1.31788
(1,5,4): (1,4,4) 0.195275 (1,5,3) -1.651664E-05 (1,5,5) 2.356344E-05 (1,6,4) -0.246911 (2,5,4) -1.31786
(1,5,5): (1,4,5) 0.195286 (1,5,4) -2.356344E-05 (1,5,6) 3.027535E-05 (1,6,5) -0.246920 (2,5,5) -1.31785
(1,5,6): (1,4,6) 0.195296 (1,5,5) -3.027535E-05 (1,5,7) 3.726769E-05 (1,6,6) -0.246928 (2,5,6) -1.31785
(1,5,7): (1,4,7) 0.195303 (1,5,6) -3.726769E-05 (1,5,8) 4.455876E-05 (1,6,7) -0.246933 (2,5,7) -1.31785
(1,5,8): (1,4,8) 0.195304 (1,5,7) -4.455876E-05 (1,5,9) 4.893267E-05 (1,6,8) -0.246938 (2,5,8) -1.31785
(1,5,9): (1,4,9) 0.195301 (1,5,8) -4.893267E-05 (1,5,10) 5.292652E-05 (1,6,9) -0.246943 (2,5,9) -1.31786
(1,5,10): (1,4,10) 0.195302 (1,5,9) -5.292652E-05 (1,6,10) -0.246954 (2,5,10) -1.31784
(1,6,1): (1,5,1) 0.246913 (1,6,2) -2.940063E-07 (1,7,1) -0.355215 (2,6,1) -1.26147
(1,6,2): (1,5,2) 0.246899 (1,6,1) 2.940063E-07 (1,6,3) 1.824292E-05 (1,7,2) -0.355197 (2,6,2) -1.26142
(1,6,3): (1,5,3) 0.246904 (1,6,2) -1.824292E-05 (1,6,4) 1.012946E-05 (1,7,3) -0.355202 (2,6,3) -1.26144
(1,6,4): (1,5,4) 0.246911 (1,6,3) -1.012946E-05 (1,6,5) 1.464124E-05 (1,7,4) -0.355206 (2,6,4) -1.26142
(1,6,5): (1,5,5) 0.246920 (1,6,4) -1.464124E-05 (1,6,6) 2.309272E-05 (1,7,5) -0.355212 (2,6,5) -1.26141
(1,6,6): (1,5,6) 0.246928 (1,6,5) -2.309272E-05 (1,6,7) 3.223622E-05 (1,7,6) -0.355219 (2,6,6) -1.26139
(1,6,7): (1,5,7) 0.246933 (1,6,6) -3.223622E-05 (1,6,8) 4.023043E-05 (1,7,7) -0.355227 (2,6,7) -1.26139
(1,6,8): (1,5,8) 0.246938 (1,6,7) -4.023043E-05 (1,6,9) 4.380224E-05 (1,7,8) -0.355239 (2,6,8) -1.26139
(1,6,9): (1,5,9) 0.246943 (1,6,8) -4.380224E-05 (1,6,10) 4.147158E-05 (1,7,9) -0.355256 (2,6,9) -1.26141
(1,6,10): (1,5,10) 0.246954 (1,6,9) -4.147158E-05 (1,7,10) -0.355275 (2,6,10) -1.26142
(1,7,1): (1,6,1) 0.355215 (1,7,2) 1.708037E-05 (1,8,1) -1.42580 (2,7,1) -0.299417
(1,7,2): (1,6,2) 0.355197 (1,7,1) -1.708037E-05 (1,7,3) 1.354456E-05 (1,8,2) -1.42581 (2,7,2) -0.299378
(1,7,3): (1,6,3) 0.355202 (1,7,2) -1.354456E-05 (1,7,4) 6.744336E-06 (1,8,3) -1.42583 (2,7,3) -0.299396
(1,7,4): (1,6,4) 0.355206 (1,7,3) -6.744336E-06 (1,7,5) 9.316888E-06 (1,8,4) -1.42583 (2,7,4) -0.299373
(1,7,5): (1,6,5) 0.355212 (1,7,4) -9.316888E-06 (1,7,6) 1.640198E-05 (1,8,5) -1.42584 (2,7,5) -0.299347
(1,7,6): (1,6,6) 0.355219 (1,7,5) -1.640198E-05 (1,7,7) 2.420917E-05 (1,8,6) -1.42586 (2,7,6) -0.299326
(1,7,7): (1,6,7) 0.355227 (1,7,6) -2.420917E-05 (1,7,8) 2.921042E-05 (1,8,7) -1.42588 (2,7,7) -0.299314
(1,7,8): (1,6,8) 0.355239 (1,7,7) -2.921042E-05 (1,7,9) 2.661709E-05 (1,8,8) -1.42590 (2,7,8) -0.299315
(1,7,9): (1,6,9) 0.355256 (1,7,8) -2.661709E-05 (1,7,10) 2.202296E-05 (1,8,9) -1.42593 (2,7,9) -0.299340
(1,7,10): (1,6,10) 0.355275 (1,7,9) -2.202296E-05 (1,8,10) -1.42595 (2,7,10) -0.299324
(1,8,1): (1,7,1) 1.42580 (1,8,2) 4.129438E-06 (1,9,1) 1.42714 (2,8,1) 16.3342
(1,8,2): (1,7,2) 1.42581 (1,8,1) -4.129438E-06 (1,8,3) 1.086912E-06 (1,9,2) 1.42715 (2,8,2) 16.3344
(1,8,3): (1,7,3) 1.42583 (1,8,2) -1.086912E-06 (1,8,4) 8.100937E-07 (1,9,3) 1.42716 (2,8,3) 16.3345
(1,8,4): (1,7,4) 1.42583 (1,8,3) -8.100937E-07 (1,8,5) 1.513096E-06 (1,9,4) 1.42716 (2,8,4) 16.3346
(1,8,5): (1,7,5) 1.42584 (1,8,4) -1.513096E-06 (1,8,6) 2.345645E-06 (1,9,5) 1.42717 (2,8,5) 16.3347
(1,8,6): (1,7,6) 1.42586 (1,8,5) -2.345645E-06 (1,8,7) 3.073744E-06 (1,9,6) 1.42718 (2,8,6) 16.3349
(1,8,7): (1,7,7) 1.42588 (1,8,6) -3.073744E-06 (1,8,8) 3.172219E-06 (1,9,7) 1.42719 (2,8,7) 16.3351
(1,8,8): (1,7,8) 1.42590 (1,8,7) -3.172219E-06 (1,8,9) 1.952158E-06 (1,9,8) 1.42720 (2,8,8) 16.3353
(1,8,9): (1,7,9) 1.42593 (1,8,8) -1.952158E-06 (1,8,10) -1.372070E-07 (1,9,9) 1.42720 (2,8,9) 16.3354
(1,8,10): (1,7,10) 1.42595 (1,8,9) 1.372070E-07 (1,9,10) 1.42719 (2,8,10) 16.3354
(1,9,1): (1,8,1) -1.42714 (1,9,2) 2.159950E-05 (1,10,1) 0.356497 (2,9,1) -0.299529
(1,9,2): (1,8,2) -1.42715 (1,9,1) -2.159950E-05 (1,9,3) 6.578966E-06 (1,10,2) 0.356505 (2,9,2) -0.299507
(1,9,3): (1,8,3) -1.42716 (1,9,2) -6.578966E-06 (1,9,4) 4.745201E-06 (1,10,3) 0.356508 (2,9,3) -0.299528
(1,9,4): (1,8,4) -1.42716 (1,9,3) -4.745201E-06 (1,9,5) 9.614110E-06 (1,10,4) 0.356512 (2,9,4) -0.299524
(1,9,5): (1,8,5) -1.42717 (1,9,4) -9.614110E-06 (1,9,6) 1.288553E-05 (1,10,5) 0.356515 (2,9,5) -0.299516
(1,9,6): (1,8,6) -1.42718 (1,9,5) -1.288553E-05 (1,9,7) 1.375072E-05 (1,10,6) 0.356516 (2,9,6) -0.299502
(1,9,7): (1,8,7) -1.42719 (1,9,6) -1.375072E-05 (1,9,8) 9.084785E-06 (1,10,7) 0.356516 (2,9,7) -0.299493
(1,9,8): (1,8,8) -1.42720 (1,9,7) -9.084785E-06 (1,9,9) -3.055547E-06 (1,10,8) 0.356513 (2,9,8) -0.299496
(1,9,9): (1,8,9) -1.42720 (1,9,8) 3.055547E-06 (1,9,10) -1.041770E-05 (1,10,9) 0.356506 (2,9,9) -0.299521
(1,9,10): (1,8,10) -1.42719 (1,9,9) 1.041770E-05 (1,10,10) 0.356494 (2,9,10) -0.299544
(1,10,1): (1,9,1) -0.356497 (1,10,2) 2.910530E-05 (1,11,1) 0.248082 (2,10,1) -1.26156
(1,10,2): (1,9,2) -0.356505 (1,10,1) -2.910530E-05 (1,10,3) 9.642468E-06 (1,11,2) 0.248081 (2,10,2) -1.26167
(1,10,3): (1,9,3) -0.356508 (1,10,2) -9.642468E-06 (1,10,4) 8.930254E-06 (1,11,3) 0.248089 (2,10,3) -1.26166
(1,10,4): (1,9,4) -0.356512 (1,10,3) -8.930254E-06 (1,10,5) 1.226510E-05 (1,11,4) 0.248093 (2,10,4) -1.26164
(1,10,5): (1,9,5) -0.356515 (1,10,4) -1.226510E-05 (1,10,6) 1.359662E-05 (1,11,5) 0.248094 (2,10,5) -1.26164
(1,10,6): (1,9,6) -0.356516 (1,10,5) -1.359662E-05 (1,10,7) 1.320440E-05 (1,11,6) 0.248089 (2,10,6) -1.26163
(1,10,7): (1,9,7) -0.356516 (1,10,6) -1.320440E-05 (1,10,8) 6.920994E-06 (1,11,7) 0.248080 (2,10,7) -1.26164
(1,10,8): (1,9,8) -0.356513 (1,10,7) -6.920994E-06 (1,10,9) -1.075899E-05 (1,11,8) 0.248073 (2,10,8) -1.26166
(1,10,9): (1,9,9) -0.356506 (1,10,8) 1.075899E-05 (1,10,10) -2.214867E-05 (1,11,9) 0.248067 (2,10,9) -1.26169
(1,10,10): (1,9,10) -0.356494 (1,10,9) 2.214867E-05 (1,11,10) 0.248061 (2,10,10) -1.26170
(1,11,1): (1,10,1) -0.248082 (1,11,2) 2.836676E-05 (1,12,1) 0.196259 (2,11,1) -1.31825
(1,11,2): (1,10,2) -0.248081 (1,11,1) -2.836676E-05 (1,11,3) 1.677195E-05 (1,12,2) 0.196277 (2,11,2) -1.31827
(1,11,3): (1,10,3) -0.248089 (1,11,2) -1.677195E-05 (1,11,4) 1.341656E-05 (1,12,3) 0.196289 (2,11,3) -1.31825
(1,11,4): (1,10,4) -0.248093 (1,11,3) -1.341656E-05 (1,11,5) 1.250026E-05 (1,12,4) 0.196293 (2,11,4) -1.31825
(1,11,5): (1,10,5) -0.248094 (1,11,4) -1.250026E-05 (1,11,6) 8.823573E-06 (1,12,5) 0.196290 (2,11,5) -1.31825
(1,11,6): (1,10,6) -0.248089 (1,11,5) -8.823573E-06 (1,11,7) 4.636324E-06 (1,12,6) 0.196283 (2,11,6) -1.31826
(1,11,7): (1,10,7) -0.248080 (1,11,6) -4.636324E-06 (1,11,8) -4.575871E-07 (1,12,7) 0.196274 (2,11,7) -1.31827
(1,11,8): (1,10,8) -0.248073 (1,11,7) 4.575871E-07 (1,11,9) -1.670306E-05 (1,12,8) 0.196265 (2,11,8) -1.31829
(1,11,9): (1,10,9) -0.248067 (1,11,8) 1.670306E-05 (1,11,10) -2.793496E-05 (1,12,9) 0.196259 (2,11,9) -1.31833
(1,11,10): (1,10,10) -0.248061 (1,11,9) 2.793496E-05 (1,12,10) 0.196252 (2,11,10) -1.31835
(1,12,1): (1,11,1) -0.196259 (1,12,2) 4.616257E-05 (1,13,1) 0.147460 (2,12,1) -1.32120
(1,12,2): (1,11,2) -0.196277 (1,12,1) -4.616257E-05 (1,12,3) 2.861031E-05 (1,13,2) 0.147476 (2,12,2) -1.32124
(1,12,3): (1,11,3) -0.196289 (1,12,2) -2.861031E-05 (1,12,4) 1.769190E-05 (1,13,3) 0.147483 (2,12,3) -1.32122
(1,12,4): (1,11,4) -0.196293 (1,12,3) -1.769190E-05 (1,12,5) 9.405340E-06 (1,13,4) 0.147482 (2,12,4) -1.32123
(1,12,5): (1,11,5) -0.196290 (1,12,4) -9.405340E-06 (1,12,6) 1.812195E-06 (1,13,5) 0.147473 (2,12,5) -1.32124
(1,12,6): (1,11,6) -0.196283 (1,12,5) -1.812195E-06 (1,12,7) -4.723736E-06 (1,13,6) 0.147461 (2,12,6) -1.32124
(1,12,7): (1,11,7) -0.196274 (1,12,6) 4.723736E-06 (1,12,8) -9.313764E-06 (1,13,7) 0.147447 (2,12,7) -1.32125
(1,12,8): (1,11,8) -0.196265 (1,12,7) 9.313764E-06 (1,12,9) -2.297323E-05 (1,13,8) 0.147435 (2,12,8) -1.32126
(1,12,9): (1,11,9) -0.196259 (1,12,8) 2.297323E-05 (1,12,10) -3.406764E-05 (1,13,9) 0.147426 (2,12,9) -1.32130
(1,12,10): (1,11,10) -0.196252 (1,12,9) 3.406764E-05 (1,13,10) 0.147414 (2,12,10) -1.32135
(1,13,1): (1,12,1) -0.147460 (1,13,2) 6.179850E-05 (1,14,1) 9.850108E-02 (2,13,1) -1.32110
(1,13,2): (1,12,2) -0.147476 (1,13,1) -6.179850E-05 (1,13,3) 3.629596E-05 (1,14,2) 9.850915E-02 (2,13,2) -1.32115
(1,13,3): (1,12,3) -0.147483 (1,13,2) -3.629596E-05 (1,13,4) 1.628088E-05 (1,14,3) 9.850450E-02 (2,13,3) -1.32118
(1,13,4): (1,12,4) -0.147482 (1,13,3) -1.628088E-05 (1,13,5) 6.876723E-07 (1,14,4) 9.849855E-02 (2,13,4) -1.32120
(1,13,5): (1,12,5) -0.147473 (1,13,4) -6.876723E-07 (1,13,6) -1.054734E-05 (1,14,5) 9.849012E-02 (2,13,5) -1.32121
(1,13,6): (1,12,6) -0.147461 (1,13,5) 1.054734E-05 (1,13,7) -1.837956E-05 (1,14,6) 9.848025E-02 (2,13,6) -1.32120
(1,13,7): (1,12,7) -0.147447 (1,13,6) 1.837956E-05 (1,13,8) -2.126491E-05 (1,14,7) 9.846910E-02 (2,13,7) -1.32121
(1,13,8): (1,12,8) -0.147435 (1,13,7) 2.126491E-05 (1,13,9) -3.261725E-05 (1,14,8) 9.845700E-02 (2,13,8) -1.32121
(1,13,9): (1,12,9) -0.147426 (1,13,8) 3.261725E-05 (1,13,10) -4.588538E-05 (1,14,9) 9.844570E-02 (2,13,9) -1.32123
(1,13,10): (1,12,10) -0.147414 (1,13,9) 4.588538E-05 (1,14,10) 9.843084E-02 (2,13,10) -1.32131
(1,14,1): (1,13,1) -9.850108E-02 (1,14,2) 6.989838E-05 (1,15,1) 4.930087E-02 (2,14,1) -1.32091
(1,14,2): (1,13,2) -9.850915E-02 (1,14,1) -6.989838E-05 (1,14,3) 3.167073E-05 (1,15,2) 4.927633E-02 (2,14,2) -1.32108
(1,14,3): (1,13,3) -9.850450E-02 (1,14,2) -3.167073E-05 (1,14,4) 1.031503E-05 (1,15,3) 4.926470E-02 (2,14,3) -1.32116
(1,14,4): (1,13,4) -9.849855E-02 (1,14,3) -1.031503E-05 (1,14,5) -7.799852E-06 (1,15,4) 4.925755E-02 (2,14,4) -1.32118
(1,14,5): (1,13,5) -9.849012E-02 (1,14,4) 7.799852E-06 (1,14,6) -2.048465E-05 (1,15,5) 4.925221E-02 (2,14,5) -1.32118
(1,14,6): (1,13,6) -9.848025E-02 (1,14,5) 2.048465E-05 (1,14,7) -2.956995E-05 (1,15,6) 4.924880E-02 (2,14,6) -1.32115
(1,14,7): (1,13,7) -9.846910E-02 (1,14,6) 2.956995E-05 (1,14,8) -3.335713E-05 (1,15,7) 4.924525E-02 (2,14,7) -1.32114
(1,14,8): (1,13,8) -9.845700E-02 (1,14,7) 3.335713E-05 (1,14,9) -4.387514E-05 (1,15,8) 4.923902E-02 (2,14,8) -1.32113
(1,14,9): (1,13,9) -9.844570E-02 (1,14,8) 4.387514E-05 (1,14,10) -6.068345E-05 (1,15,9) 4.923141E-02 (2,14,9) -1.32114
(1,14,10): (1,13,10) -9.843084E-02 (1,14,9) 6.068345E-05 (1,15,10) 4.922168E-02 (2,14,10) -1.32123
(1,15,1): (1,14,1) -4.930087E-02 (1,15,2) 4.538911E-05 (2,15,1) -1.32091
(1,15,2): (1,14,2) -4.927633E-02 (1,15,1) -4.538911E-05 (1,15,3) 2.005412E-05 (2,15,2) -1.32126
(1,15,3): (1,14,3) -4.926470E-02 (1,15,2) -2.005412E-05 (1,15,4) 3.146572E-06 (2,15,3) -1.32132
(1,15,4): (1,14,4) -4.925755E-02 (1,15,3) -3.146572E-06 (1,15,5) -1.316978E-05 (2,15,4) -1.32134
(1,15,5): (1,14,5) -4.925221E-02 (1,15,4) 1.316978E-05 (1,15,6) -2.394341E-05 (2,15,5) -1.32133
(1,15,6): (1,14,6) -4.924880E-02 (1,15,5) 2.394341E-05 (1,15,7) -3.313970E-05 (2,15,6) -1.32128
(1,15,7): (1,14,7) -4.924525E-02 (1,15,6) 3.313970E-05 (1,15,8) -3.960239E-05 (2,15,7) -1.32125
(1,15,8): (1,14,8) -4.923902E-02 (1,15,7) 3.960239E-05 (1,15,9) -5.147694E-05 (2,15,8) -1.32123
(1,15,9): (1,14,9) -4.923141E-02 (1,15,8) 5.147694E-05 (1,15,10) -7.039345E-05 (2,15,9) -1.32122
(1,15,10): (1,14,10) -4.922168E-02 (1,15,9) 7.039345E-05 (2,15,10) -1.32131
(2,1,1): (1,1,1) 1.32077 (2,1,2) -1.463006E-06 (2,2,1) -1.882243E-03 (3,1,1) -1.31852
(2,1,2): (1,1,2) 1.32069 (2,1,1) 1.463006E-06 (2,1,3) 4.206272E-07 (2,2,2) -1.882024E-03 (3,1,2) -1.31845
(2,1,3): (1,1,3) 1.32068 (2,1,2) -4.206272E-07 (2,1,4) 1.353663E-06 (2,2,3) -1.881914E-03 (3,1,3) -1.31846
(2,1,4): (1,1,4) 1.32068 (2,1,3) -1.353663E-06 (2,1,5) 2.199591E-06 (2,2,4) -1.881896E-03 (3,1,4) -1.31850
(2,1,5): (1,1,5) 1.32068 (2,1,4) -2.199591E-06 (2,1,6) 2.371617E-06 (2,2,5) -1.881828E-03 (3,1,5) -1.31857
(2,1,6): (1,1,6) 1.32070 (2,1,5) -2.371617E-06 (2,1,7) 2.382477E-06 (2,2,6) -1.881818E-03 (3,1,6) -1.31865
(2,1,7): (1,1,7) 1.32073 (2,1,6) -2.382477E-06 (2,1,8) 1.947895E-06 (2,2,7) -1.882008E-03 (3,1,7) -1.31872
(2,1,8): (1,1,8) 1.32075 (2,1,7) -1.947895E-06 (2,1,9) 1.327222E-06 (2,2,8) -1.882225E-03 (3,1,8) -1.31873
(2,1,9): (1,1,9) 1.32076 (2,1,8) -1.327222E-06 (2,1,10) 8.913494E-07 (2,2,9) -1.882277E-03 (3,1,9) -1.31868
(2,1,10): (1,1,10) 1.32074 (2,1,9) -8.913494E-07 (2,2,10) -1.881799E-03 (3,1,10) -1.31871
(2,2,1): (1,2,1) 1.32079 (2,1,1) 1.882243E-03 (2,2,2) -1.244756E-06 (2,3,1) -3.761402E-03 (3,2,1) -1.31850
(2,2,2): (1,2,2) 1.32071 (2,1,2) 1.882024E-03 (2,2,1) 1.244756E-06 (2,2,3) 5.313638E-07 (2,3,2) -3.761308E-03 (3,2,2) -1.31841
(2,2,3): (1,2,3) 1.32068 (2,1,3) 1.881914E-03 (2,2,2) -5.313638E-07 (2,2,4) 1.370942E-06 (2,3,3) -3.761268E-03 (3,2,3) -1.31840
(2,2,4): (1,2,4) 1.32069 (2,1,4) 1.881896E-03 (2,2,3) -1.370942E-06 (2,2,5) 2.268113E-06 (2,3,4) -3.761560E-03 (3,2,4) -1.31845
(2,2,5): (1,2,5) 1.32071 (2,1,5) 1.881828E-03 (2,2,4) -2.268113E-06 (2,2,6) 2.381060E-06 (2,3,5) -3.761950E-03 (3,2,5) -1.31850
(2,2,6): (1,2,6) 1.32075 (2,1,6) 1.881818E-03 (2,2,5) -2.381060E-06 (2,2,7) 2.192533E-06 (2,3,6) -3.762270E-03 (3,2,6) -1.31858
(2,2,7): (1,2,7) 1.32080 (2,1,7) 1.882008E-03 (2,2,6) -2.192533E-06 (2,2,8) 1.730862E-06 (2,3,7) -3.762503E-03 (3,2,7) -1.31865
(2,2,8): (1,2,8) 1.32083 (2,1,8) 1.882225E-03 (2,2,7) -1.730862E-06 (2,2,9) 1.276101E-06 (2,3,8) -3.762555E-03 (3,2,8) -1.31867
(2,2,9): (1,2,9) 1.32083 (2,1,9) 1.882277E-03 (2,2,8) -1.276101E-06 (2,2,10) 1.368942E-06 (2,3,9) -3.762392E-03 (3,2,9) -1.31862
(2,2,10): (1,2,10) 1.32075 (2,1,10) 1.881799E-03 (2,2,9) -1.368942E-06 (2,3,10) -3.761911E-03 (3,2,10) -1.31864
(2,3,1): (1,3,1) 1.32097 (2,2,1) 3.761402E-03 (2,3,2) -1.150234E-06 (2,4,1) -5.641606E-03 (3,3,1) -1.31862
(2,3,2): (1,3,2) 1.32085 (2,2,2) 3.761308E-03 (2,3,1) 1.150234E-06 (2,3,3) 5.714548E-07 (2,4,2) -5.641284E-03 (3,3,2) -1.31849
(2,3,3): (1,3,3) 1.32081 (2,2,3) 3.761268E-03 (2,3,2) -5.714548E-07 (2,3,4) 1.078637E-06 (2,4,3) -5.641123E-03 (3,3,3) -1.31844
(2,3,4): (1,3,4) 1.32082 (2,2,4) 3.761560E-03 (2,3,3) -1.078637E-06 (2,3,5) 1.877975E-06 (2,4,4) -5.641439E-03 (3,3,4) -1.31848
(2,3,5): (1,3,5) 1.32084 (2,2,5) 3.761950E-03 (2,3,4) -1.877975E-06 (2,3,6) 2.061523E-06 (2,4,5) -5.642046E-03 (3,3,5) -1.31851
(2,3,6): (1,3,6) 1.32086 (2,2,6) 3.762270E-03 (2,3,5) -2.061523E-06 (2,3,7) 1.958593E-06 (2,4,6) -5.642570E-03 (3,3,6) -1.31855
(2,3,7): (1,3,7) 1.32089 (2,2,7) 3.762503E-03 (2,3,6) -1.958593E-06 (2,3,8) 1.679538E-06 (2,4,7) -5.642865E-03 (3,3,7) -1.31859
(2,3,8): (1,3,8) 1.32091 (2,2,8) 3.762555E-03 (2,3,7) -1.679538E-06 (2,3,9) 1.439335E-06 (2,4,8) -5.642824E-03 (3,3,8) -1.31860
(2,3,9): (1,3,9) 1.32091 (2,2,9) 3.762392E-03 (2,3,8) -1.439335E-06 (2,3,10) 1.849681E-06 (2,4,9) -5.642486E-03 (3,3,9) -1.31859
(2,3,10): (1,3,10) 1.32081 (2,2,10) 3.761911E-03 (2,3,9) -1.849681E-06 (2,4,10) -5.642137E-03 (3,3,10) -1.31871
(2,4,1): (1,4,1) 1.32104 (2,3,1) 5.641606E-03 (2,4,2) -8.281904E-07 (2,5,1) -7.525807E-03 (3,4,1) -1.31874
(2,4,2): (1,4,2) 1.32090 (2,3,2) 5.641284E-03 (2,4,1) 8.281904E-07 (2,4,3) 7.328536E-07 (2,5,2) -7.525342E-03 (3,4,2) -1.31860
(2,4,3): (1,4,3) 1.32085 (2,3,3) 5.641123E-03 (2,4,2) -7.328536E-07 (2,4,4) 7.619332E-07 (2,5,3) -7.525162E-03 (3,4,3) -1.31851
(2,4,4): (1,4,4) 1.32085 (2,3,4) 5.641439E-03 (2,4,3) -7.619332E-07 (2,4,5) 1.271741E-06 (2,5,4) -7.525248E-03 (3,4,4) -1.31851
(2,4,5): (1,4,5) 1.32088 (2,3,5) 5.642046E-03 (2,4,4) -1.271741E-06 (2,4,6) 1.536727E-06 (2,5,5) -7.525604E-03 (3,4,5) -1.31853
(2,4,6): (1,4,6) 1.32089 (2,3,6) 5.642570E-03 (2,4,5) -1.536727E-06 (2,4,7) 1.663841E-06 (2,5,6) -7.525970E-03 (3,4,6) -1.31855
(2,4,7): (1,4,7) 1.32091 (2,3,7) 5.642865E-03 (2,4,6) -1.663841E-06 (2,4,8) 1.720983E-06 (2,5,7) -7.526200E-03 (3,4,7) -1.31857
(2,4,8): (1,4,8) 1.32091 (2,3,8) 5.642824E-03 (2,4,7) -1.720983E-06 (2,4,9) 1.776777E-06 (2,5,8) -7.526198E-03 (3,4,8) -1.31859
(2,4,9): (1,4,9) 1.32091 (2,3,9) 5.642486E-03 (2,4,8) -1.776777E-06 (2,4,10) 2.199031E-06 (2,5,9) -7.526097E-03 (3,4,9) -1.31863
(2,4,10): (1,4,10) 1.32083 (2,3,10) 5.642137E-03 (2,4,9) -2.199031E-06 (2,5,10) -7.526227E-03 (3,4,10) -1.31876
(2,5,1): (1,5,1) 1.31804 (2,4,1) 7.525807E-03 (2,5,2) -3.627142E-07 (2,6,1) -9.475388E-03 (3,5,1) -1.31579
(2,5,2): (1,5,2) 1.31792 (2,4,2) 7.525342E-03 (2,5,1) 3.627142E-07 (2,5,3) 9.126321E-07 (2,6,2) -9.474976E-03 (3,5,2) -1.31572
(2,5,3): (1,5,3) 1.31788 (2,4,3) 7.525162E-03 (2,5,2) -9.126321E-07 (2,5,4) 6.758617E-07 (2,6,3) -9.475214E-03 (3,5,3) -1.31565
(2,5,4): (1,5,4) 1.31786 (2,4,4) 7.525248E-03 (2,5,3) -6.758617E-07 (2,5,5) 9.152601E-07 (2,6,4) -9.475468E-03 (3,5,4) -1.31560
(2,5,5): (1,5,5) 1.31785 (2,4,5) 7.525604E-03 (2,5,4) -9.152601E-07 (2,5,6) 1.171346E-06 (2,6,5) -9.475793E-03 (3,5,5) -1.31558
(2,5,6): (1,5,6) 1.31785 (2,4,6) 7.525970E-03 (2,5,5) -1.171346E-06 (2,5,7) 1.433431E-06 (2,6,6) -9.476053E-03 (3,5,6) -1.31557
(2,5,7): (1,5,7) 1.31785 (2,4,7) 7.526200E-03 (2,5,6) -1.433431E-06 (2,5,8) 1.723719E-06 (2,6,7) -9.476230E-03 (3,5,7) -1.31559
(2,5,8): (1,5,8) 1.31785 (2,4,8) 7.526198E-03 (2,5,7) -1.723719E-06 (2,5,9) 1.877350E-06 (2,6,8) -9.476393E-03 (3,5,8) -1.31562
(2,5,9): (1,5,9) 1.31786 (2,4,9) 7.526097E-03 (2,5,8) -1.877350E-06 (2,5,10) 2.069173E-06 (2,6,9) -9.476605E-03 (3,5,9) -1.31568
(2,5,10): (1,5,10) 1.31784 (2,4,10) 7.526227E-03 (2,5,9) -2.069173E-06 (2,6,10) -9.477078E-03 (3,5,10) -1.31581
(2,6,1): (1,6,1) 1.26147 (2,5,1) 9.475388E-03 (2,6,2) 5.013590E-08 (2,7,1) -1.250499E-02 (3,6,1) -1.25818
(2,6,2): (1,6,2) 1.26142 (2,5,2) 9.474976E-03 (2,6,1) -5.013590E-08 (2,6,3) 6.742476E-07 (2,7,2) -1.250432E-02 (3,6,2) -1.25816
(2,6,3): (1,6,3) 1.26144 (2,5,3) 9.475214E-03 (2,6,2) -6.742476E-07 (2,6,4) 4.218944E-07 (2,7,3) -1.250449E-02 (3,6,3) -1.25816
(2,6,4): (1,6,4) 1.26142 (2,5,4) 9.475468E-03 (2,6,3) -4.218944E-07 (2,6,5) 5.899753E-07 (2,7,4) -1.250462E-02 (3,6,4) -1.25811
(2,6,5): (1,6,5) 1.26141 (2,5,5) 9.475793E-03 (2,6,4) -5.899753E-07 (2,6,6) 9.118960E-07 (2,7,5) -1.250481E-02 (3,6,5) -1.25808
(2,6,6): (1,6,6) 1.26139 (2,5,6) 9.476053E-03 (2,6,5) -9.118960E-07 (2,6,7) 1.256458E-06 (2,7,6) -1.250506E-02 (3,6,6) -1.25807
(2,6,7): (1,6,7) 1.26139 (2,5,7) 9.476230E-03 (2,6,6) -1.256458E-06 (2,6,8) 1.560195E-06 (2,7,7) -1.250535E-02 (3,6,7) -1.25808
(2,6,8): (1,6,8) 1.26139 (2,5,8) 9.476393E-03 (2,6,7) -1.560195E-06 (2,6,9) 1.665122E-06 (2,7,8) -1.250578E-02 (3,6,8) -1.25811
(2,6,9): (1,6,9) 1.26141 (2,5,9) 9.476605E-03 (2,6,8) -1.665122E-06 (2,6,10) 1.596333E-06 (2,7,9) -1.250644E-02 (3,6,9) -1.25815
(2,6,10): (1,6,10) 1.26142 (2,5,10) 9.477078E-03 (2,6,9) -1.596333E-06 (2,7,10) -1.250716E-02 (3,6,10) -1.25822
(2,7,1): (1,7,1) 0.299417 (2,6,1) 1.250499E-02 (2,7,2) 7.184743E-07 (2,8,1) -3.372162E-02 (3,7,1) -0.278229
(2,7,2): (1,7,2) 0.299378 (2,6,2) 1.250432E-02 (2,7,1) -7.184743E-07 (2,7,3) 5.023225E-07 (2,8,2) -3.372190E-02 (3,7,2) -0.278180
(2,7,3): (1,7,3) 0.299396 (2,6,3) 1.250449E-02 (2,7,2) -5.023225E-07 (2,7,4) 2.941781E-07 (2,8,3) -3.372226E-02 (3,7,3) -0.278184
(2,7,4): (1,7,4) 0.299373 (2,6,4) 1.250462E-02 (2,7,3) -2.941781E-07 (2,7,5) 3.989104E-07 (2,8,4) -3.372243E-02 (3,7,4) -0.278149
(2,7,5): (1,7,5) 0.299347 (2,6,5) 1.250481E-02 (2,7,4) -3.989104E-07 (2,7,6) 6.675156E-07 (2,8,5) -3.372261E-02 (3,7,5) -0.278119
(2,7,6): (1,7,6) 0.299326 (2,6,6) 1.250506E-02 (2,7,5) -6.675156E-07 (2,7,7) 9.592100E-07 (2,8,6) -3.372297E-02 (3,7,6) -0.278105
(2,7,7): (1,7,7) 0.299314 (2,6,7) 1.250535E-02 (2,7,6) -9.592100E-07 (2,7,8) 1.137028E-06 (2,8,7) -3.372353E-02 (3,7,7) -0.278108
(2,7,8): (1,7,8) 0.299315 (2,6,8) 1.250578E-02 (2,7,7) -1.137028E-06 (2,7,9) 1.003411E-06 (2,8,8) -3.372426E-02 (3,7,8) -0.278130
(2,7,9): (1,7,9) 0.299340 (2,6,9) 1.250644E-02 (2,7,8) -1.003411E-06 (2,7,10) 8.789107E-07 (2,8,9) -3.372503E-02 (3,7,9) -0.278154
(2,7,10): (1,7,10) 0.299324 (2,6,10) 1.250716E-02 (2,7,9) -8.789107E-07 (2,8,10) -3.372593E-02 (3,7,10) -0.278296
(2,8,1): (1,8,1) -16.3342 (2,7,1) 3.372162E-02 (2,8,2) 4.388567E-07 (2,9,1) 3.377323E-02 (3,8,1) 16.2667
(2,8,2): (1,8,2) -16.3344 (2,7,2) 3.372190E-02 (2,8,1) -4.388567E-07 (2,8,3) 1.472101E-07 (2,9,2) 3.377366E-02 (3,8,2) 16.2669
(2,8,3): (1,8,3) -16.3345 (2,7,3) 3.372226E-02 (2,8,2) -1.472101E-07 (2,8,4) 1.259540E-07 (2,9,3) 3.377374E-02 (3,8,3) 16.2670
(2,8,4): (1,8,4) -16.3346 (2,7,4) 3.372243E-02 (2,8,3) -1.259540E-07 (2,8,5) 2.129773E-07 (2,9,4) 3.377380E-02 (3,8,4) 16.2670
(2,8,5): (1,8,5) -16.3347 (2,7,5) 3.372261E-02 (2,8,4) -2.129773E-07 (2,8,6) 3.127456E-07 (2,9,5) 3.377398E-02 (3,8,5) 16.2672
(2,8,6): (1,8,6) -16.3349 (2,7,6) 3.372297E-02 (2,8,5) -3.127456E-07 (2,8,7) 3.971876E-07 (2,9,6) 3.377418E-02 (3,8,6) 16.2673
(2,8,7): (1,8,7) -16.3351 (2,7,7) 3.372353E-02 (2,8,6) -3.971876E-07 (2,8,8) 4.037019E-07 (2,9,7) 3.377434E-02 (3,8,7) 16.2675
(2,8,8): (1,8,8) -16.3353 (2,7,8) 3.372426E-02 (2,8,7) -4.037019E-07 (2,8,9) 2.378855E-07 (2,9,8) 3.377428E-02 (3,8,8) 16.2677
(2,8,9): (1,8,9) -16.3354 (2,7,9) 3.372503E-02 (2,8,8) -2.378855E-07 (2,8,10) -2.530523E-08 (2,9,9) 3.377389E-02 (3,8,9) 16.2678
(2,8,10): (1,8,10) -16.3354 (2,7,10) 3.372593E-02 (2,8,9) 2.530523E-08 (2,9,10) 3.377348E-02 (3,8,10) 16.2679
(2,9,1): (1,9,1) 0.299529 (2,8,1) -3.377323E-02 (2,9,2) 8.707269E-07 (2,10,1) 1.255421E-02 (3,9,1) -0.278358
(2,9,2): (1,9,2) 0.299507 (2,8,2) -3.377366E-02 (2,9,1) -8.707269E-07 (2,9,3) 2.284773E-07 (2,10,2) 1.255433E-02 (3,9,2) -0.278312
(2,9,3): (1,9,3) 0.299528 (2,8,3) -3.377374E-02 (2,9,2) -2.284773E-07 (2,9,4) 1.891459E-07 (2,10,3) 1.255448E-02 (3,9,3) -0.278311
(2,9,4): (1,9,4) 0.299524 (2,8,4) -3.377380E-02 (2,9,3) -1.891459E-07 (2,9,5) 3.857934E-07 (2,10,4) 1.255466E-02 (3,9,4) -0.278304
(2,9,5): (1,9,5) 0.299516 (2,8,5) -3.377398E-02 (2,9,4) -3.857934E-07 (2,9,6) 5.206471E-07 (2,10,5) 1.255476E-02 (3,9,5) -0.278302
(2,9,6): (1,9,6) 0.299502 (2,8,6) -3.377418E-02 (2,9,5) -5.206471E-07 (2,9,7) 5.483747E-07 (2,10,6) 1.255476E-02 (3,9,6) -0.278309
(2,9,7): (1,9,7) 0.299493 (2,8,7) -3.377434E-02 (2,9,6) -5.483747E-07 (2,9,8) 3.504135E-07 (2,10,7) 1.255472E-02 (3,9,7) -0.278331
(2,9,8): (1,9,8) 0.299496 (2,8,8) -3.377428E-02 (2,9,7) -3.504135E-07 (2,9,9) -1.530409E-07 (2,10,8) 1.255461E-02 (3,9,8) -0.278356
(2,9,9): (1,9,9) 0.299521 (2,8,9) -3.377389E-02 (2,9,8) 1.530409E-07 (2,9,10) -4.370680E-07 (2,10,9) 1.255431E-02 (3,9,9) -0.278354
(2,9,10): (1,9,10) 0.299544 (2,8,10) -3.377348E-02 (2,9,9) 4.370680E-07 (2,10,10) 1.255387E-02 (3,9,10) -0.278414
(2,10,1): (1,10,1) 1.26156 (2,9,1) -1.255421E-02 (2,10,2) 9.845165E-07 (2,11,1) 9.519753E-03 (3,10,1) -1.25868
(2,10,2): (1,10,2) 1.26167 (2,9,2) -1.255433E-02 (2,10,1) -9.845165E-07 (2,10,3) 3.847694E-07 (2,11,2) 9.519836E-03 (3,10,2) -1.25876
(2,10,3): (1,10,3) 1.26166 (2,9,3) -1.255448E-02 (2,10,2) -3.847694E-07 (2,10,4) 3.661734E-07 (2,11,3) 9.520122E-03 (3,10,3) -1.25874
(2,10,4): (1,10,4) 1.26164 (2,9,4) -1.255466E-02 (2,10,3) -3.661734E-07 (2,10,5) 4.841725E-07 (2,11,4) 9.520283E-03 (3,10,4) -1.25874
(2,10,5): (1,10,5) 1.26164 (2,9,5) -1.255476E-02 (2,10,4) -4.841725E-07 (2,10,6) 5.275075E-07 (2,11,5) 9.520275E-03 (3,10,5) -1.25874
(2,10,6): (1,10,6) 1.26163 (2,9,6) -1.255476E-02 (2,10,5) -5.275075E-07 (2,10,7) 4.996928E-07 (2,11,6) 9.520082E-03 (3,10,6) -1.25876
(2,10,7): (1,10,7) 1.26164 (2,9,7) -1.255472E-02 (2,10,6) -4.996928E-07 (2,10,8) 2.454012E-07 (2,11,7) 9.519740E-03 (3,10,7) -1.25880
(2,10,8): (1,10,8) 1.26166 (2,9,8) -1.255461E-02 (2,10,7) -2.454012E-07 (2,10,9) -4.538557E-07 (2,11,8) 9.519451E-03 (3,10,8) -1.25885
(2,10,9): (1,10,9) 1.26169 (2,9,9) -1.255431E-02 (2,10,8) 4.538557E-07 (2,10,10) -8.737631E-07 (2,11,9) 9.519211E-03 (3,10,9) -1.25886
(2,10,10): (1,10,10) 1.26170 (2,9,10) -1.255387E-02 (2,10,9) 8.737631E-07 (2,11,10) 9.518975E-03 (3,10,10) -1.25879
(2,11,1): (1,11,1) 1.31825 (2,10,1) -9.519753E-03 (2,11,2) 1.066871E-06 (2,12,1) 7.562518E-03 (3,11,1) -1.31644
(2,11,2): (1,11,2) 1.31827 (2,10,2) -9.519836E-03 (2,11,1) -1.066871E-06 (2,11,3) 6.709274E-07 (2,12,2) 7.563183E-03 (3,11,2) -1.31643
(2,11,3): (1,11,3) 1.31825 (2,10,3) -9.520122E-03 (2,11,2) -6.709274E-07 (2,11,4) 5.277513E-07 (2,12,3) 7.563632E-03 (3,11,3) -1.31642
(2,11,4): (1,11,4) 1.31825 (2,10,4) -9.520283E-03 (2,11,3) -5.277513E-07 (2,11,5) 4.763037E-07 (2,12,4) 7.563777E-03 (3,11,4) -1.31643
(2,11,5): (1,11,5) 1.31825 (2,10,5) -9.520275E-03 (2,11,4) -4.763037E-07 (2,11,6) 3.340615E-07 (2,12,5) 7.563651E-03 (3,11,5) -1.31644
(2,11,6): (1,11,6) 1.31826 (2,10,6) -9.520082E-03 (2,11,5) -3.340615E-07 (2,11,7) 1.577013E-07 (2,12,6) 7.563384E-03 (3,11,6) -1.31646
(2,11,7): (1,11,7) 1.31827 (2,10,7) -9.519740E-03 (2,11,6) -1.577013E-07 (2,11,8) -4.352832E-08 (2,12,7) 7.563025E-03 (3,11,7) -1.31649
(2,11,8): (1,11,8) 1.31829 (2,10,8) -9.519451E-03 (2,11,7) 4.352832E-08 (2,11,9) -6.941682E-07 (2,12,8) 7.562696E-03 (3,11,8) -1.31655
(2,11,9): (1,11,9) 1.31833 (2,10,9) -9.519211E-03 (2,11,8) 6.941682E-07 (2,11,10) -1.109378E-06 (2,12,9) 7.562459E-03 (3,11,9) -1.31661
(2,11,10): (1,11,10) 1.31835 (2,10,10) -9.518975E-03 (2,11,9) 1.109378E-06 (2,12,10) 7.562181E-03 (3,11,10) -1.31654
(2,12,1): (1,12,1) 1.32120 (2,11,1) -7.562518E-03 (2,12,2) 1.731656E-06 (2,13,1) 5.670760E-03 (3,12,1) -1.31951
(2,12,2): (1,12,2) 1.32124 (2,11,2) -7.563183E-03 (2,12,1) -1.731656E-06 (2,12,3) 1.120263E-06 (2,13,2) 5.671345E-03 (3,12,2) -1.31958
(2,12,3): (1,12,3) 1.32122 (2,11,3) -7.563632E-03 (2,12,2) -1.120263E-06 (2,12,4) 6.727444E-07 (2,13,3) 5.671569E-03 (3,12,3) -1.31959
(2,12,4): (1,12,4) 1.32123 (2,11,4) -7.563777E-03 (2,12,3) -6.727444E-07 (2,12,5) 3.496598E-07 (2,13,4) 5.671496E-03 (3,12,4) -1.31960
(2,12,5): (1,12,5) 1.32124 (2,11,5) -7.563651E-03 (2,12,4) -3.496598E-07 (2,12,6) 6.788368E-08 (2,13,5) 5.671162E-03 (3,12,5) -1.31960
(2,12,6): (1,12,6) 1.32124 (2,11,6) -7.563384E-03 (2,12,5) -6.788368E-08 (2,12,7) -2.014271E-07 (2,13,6) 5.670700E-03 (3,12,6) -1.31959
(2,12,7): (1,12,7) 1.32125 (2,11,7) -7.563025E-03 (2,12,6) 2.014271E-07 (2,12,8) -3.729550E-07 (2,13,7) 5.670189E-03 (3,12,7) -1.31962
(2,12,8): (1,12,8) 1.32126 (2,11,8) -7.562696E-03 (2,12,7) 3.729550E-07 (2,12,9) -9.315565E-07 (2,13,8) 5.669745E-03 (3,12,8) -1.31966
(2,12,9): (1,12,9) 1.32130 (2,11,9) -7.562459E-03 (2,12,8) 9.315565E-07 (2,12,10) -1.387206E-06 (2,13,9) 5.669394E-03 (3,12,9) -1.31972
(2,12,10): (1,12,10) 1.32135 (2,11,10) -7.562181E-03 (2,12,9) 1.387206E-06 (2,13,10) 5.668904E-03 (3,12,10) -1.31967
(2,13,1): (1,13,1) 1.32110 (2,12,1) -5.670760E-03 (2,13,2) 2.316499E-06 (2,14,1) 3.781284E-03 (3,13,1) -1.31963
(2,13,2): (1,13,2) 1.32115 (2,12,2) -5.671345E-03 (2,13,1) -2.316499E-06 (2,13,3) 1.344333E-06 (2,14,2) 3.781419E-03 (3,13,2) -1.31973
(2,13,3): (1,13,3) 1.32118 (2,12,3) -5.671569E-03 (2,13,2) -1.344333E-06 (2,13,4) 6.004754E-07 (2,14,3) 3.781182E-03 (3,13,3) -1.31980
(2,13,4): (1,13,4) 1.32120 (2,12,4) -5.671496E-03 (2,13,3) -6.004754E-07 (2,13,5) 1.581716E-08 (2,14,4) 3.780947E-03 (3,13,4) -1.31980
(2,13,5): (1,13,5) 1.32121 (2,12,5) -5.671162E-03 (2,13,4) -1.581716E-08 (2,13,6) -3.943945E-07 (2,14,5) 3.780637E-03 (3,13,5) -1.31978
(2,13,6): (1,13,6) 1.32120 (2,12,6) -5.670700E-03 (2,13,5) 3.943945E-07 (2,13,7) -7.126132E-07 (2,14,6) 3.780277E-03 (3,13,6) -1.31975
(2,13,7): (1,13,7) 1.32121 (2,12,7) -5.670189E-03 (2,13,6) 7.126132E-07 (2,13,8) -8.166172E-07 (2,14,7) 3.779868E-03 (3,13,7) -1.31974
(2,13,8): (1,13,8) 1.32121 (2,12,8) -5.669745E-03 (2,13,7) 8.166172E-07 (2,13,9) -1.282671E-06 (2,14,8) 3.779420E-03 (3,13,8) -1.31975
(2,13,9): (1,13,9) 1.32123 (2,12,9) -5.669394E-03 (2,13,8) 1.282671E-06 (2,13,10) -1.877071E-06 (2,14,9) 3.779009E-03 (3,13,9) -1.31979
(2,13,10): (1,13,10) 1.32131 (2,12,10) -5.668904E-03 (2,13,9) 1.877071E-06 (2,14,10) 3.778432E-03 (3,13,10) -1.31969
(2,14,1): (1,14,1) 1.32091 (2,13,1) -3.781284E-03 (2,14,2) 2.451343E-06 (2,15,1) 1.890386E-03 (3,14,1) -1.31965
(2,14,2): (1,14,2) 1.32108 (2,13,2) -3.781419E-03 (2,14,1) -2.451343E-06 (2,14,3) 1.107590E-06 (2,15,2) 1.889204E-03 (3,14,2) -1.31987
(2,14,3): (1,14,3) 1.32116 (2,13,3) -3.781182E-03 (2,14,2) -1.107590E-06 (2,14,4) 3.657371E-07 (2,15,3) 1.888775E-03 (3,14,3) -1.31997
(2,14,4): (1,14,4) 1.32118 (2,13,4) -3.780947E-03 (2,14,3) -3.657371E-07 (2,14,5) -2.941753E-07 (2,15,4) 1.888503E-03 (3,14,4) -1.31997
(2,14,5): (1,14,5) 1.32118 (2,13,5) -3.780637E-03 (2,14,4) 2.941753E-07 (2,14,6) -7.540548E-07 (2,15,5) 1.888312E-03 (3,14,5) -1.31991
(2,14,6): (1,14,6) 1.32115 (2,13,6) -3.780277E-03 (2,14,5) 7.540548E-07 (2,14,7) -1.121663E-06 (2,15,6) 1.888207E-03 (3,14,6) -1.31985
(2,14,7): (1,14,7) 1.32114 (2,13,7) -3.779868E-03 (2,14,6) 1.121663E-06 (2,14,8) -1.265048E-06 (2,15,7) 1.888102E-03 (3,14,7) -1.31981
(2,14,8): (1,14,8) 1.32113 (2,13,8) -3.779420E-03 (2,14,7) 1.265048E-06 (2,14,9) -1.693227E-06 (2,15,8) 1.887879E-03 (3,14,8) -1.31980
(2,14,9): (1,14,9) 1.32114 (2,13,9) -3.779009E-03 (2,14,8) 1.693227E-06 (2,14,10) -2.454697E-06 (2,15,9) 1.887606E-03 (3,14,9) -1.31979
(2,14,10): (1,14,10) 1.32123 (2,13,10) -3.778432E-03 (2,14,9) 2.454697E-06 (2,15,10) 1.887247E-03 (3,14,10) -1.31964
(2,15,1): (1,15,1) 1.32091 (2,14,1) -1.890386E-03 (2,15,2) 1.269663E-06 (3,15,1) -1.31940
(2,15,2): (1,15,2) 1.32126 (2,14,2) -1.889204E-03 (2,15,1) -1.269663E-06 (2,15,3) 6.786536E-07 (3,15,2) -1.31977
(2,15,3): (1,15,3) 1.32132 (2,14,3) -1.888775E-03 (2,15,2) -6.786536E-07 (2,15,4) 9.403691E-08 (3,15,3) -1.31984
(2,15,4): (1,15,4) 1.32134 (2,14,4) -1.888503E-03 (2,15,3) -9.403691E-08 (2,15,5) -4.855448E-07 (3,15,4) -1.31984
(2,15,5): (1,15,5) 1.32133 (2,14,5) -1.888312E-03 (2,15,4) 4.855448E-07 (2,15,6) -8.594526E-07 (3,15,5) -1.31979
(2,15,6): (1,15,6) 1.32128 (2,14,6) -1.888207E-03 (2,15,5) 8.594526E-07 (2,15,7) -1.225911E-06 (3,15,6) -1.31973
(2,15,7): (1,15,7) 1.32125 (2,14,7) -1.888102E-03 (2,15,6) 1.225911E-06 (2,15,8) -1.488746E-06 (3,15,7) -1.31968
(2,15,8): (1,15,8) 1.32123 (2,14,8) -1.887879E-03 (2,15,7) 1.488746E-06 (2,15,9) -1.965940E-06 (3,15,8) -1.31965
(2,15,9): (1,15,9) 1.32122 (2,14,9) -1.887606E-03 (2,15,8) 1.965940E-06 (2,15,10) -2.813682E-06 (3,15,9) -1.31963
(2,15,10): (1,15,10) 1.32131 (2,14,10) -1.887247E-03 (2,15,9) 2.813682E-06 (3,15,10) -1.31945
(3,1,1): (2,1,1) 1.31852 (3,1,2) -9.596063E-04 (3,2,1) -1.31755
(3,1,2): (2,1,2) 1.31845 (3,1,1) 9.596063E-04 (3,1,3) 2.871804E-04 (3,2,2) -1.31738
(3,1,3): (2,1,3) 1.31846 (3,1,2) -2.871804E-04 (3,1,4) 9.091897E-04 (3,2,3) -1.31728
(3,1,4): (2,1,4) 1.31850 (3,1,3) -9.091897E-04 (3,1,5) 1.475075E-03 (3,2,4) -1.31727
(3,1,5): (2,1,5) 1.31857 (3,1,4) -1.475075E-03 (3,1,6) 1.586038E-03 (3,2,5) -1.31721
(3,1,6): (2,1,6) 1.31865 (3,1,5) -1.586038E-03 (3,1,7) 1.604953E-03 (3,2,6) -1.31721
(3,1,7): (2,1,7) 1.31872 (3,1,6) -1.604953E-03 (3,1,8) 1.356600E-03 (3,2,7) -1.31734
(3,1,8): (2,1,8) 1.31873 (3,1,7) -1.356600E-03 (3,1,9) 9.727179E-04 (3,2,8) -1.31750
(3,1,9): (2,1,9) 1.31868 (3,1,8) -9.727179E-04 (3,1,10) 5.953294E-04 (3,2,9) -1.31754
(3,1,10): (2,1,10) 1.31871 (3,1,9) -5.953294E-04 (3,2,10) -1.31720
(3,2,1): (2,2,1) 1.31850 (3,1,1) 1.31755 (3,2,2) -7.888597E-04 (3,3,1) -2.63309
(3,2,2): (2,2,2) 1.31841 (3,1,2) 1.31738 (3,2,1) 7.888597E-04 (3,2,3) 3.850991E-04 (3,3,2) -2.63298
(3,2,3): (2,2,3) 1.31840 (3,1,3) 1.31728 (3,2,2) -3.850991E-04 (3,2,4) 9.161084E-04 (3,3,3) -2.63293
(3,2,4): (2,2,4) 1.31845 (3,1,4) 1.31727 (3,2,3) -9.161084E-04 (3,2,5) 1.539339E-03 (3,3,4) -2.63312
(3,2,5): (2,2,5) 1.31850 (3,1,5) 1.31721 (3,2,4) -1.539339E-03 (3,2,6) 1.588979E-03 (3,3,5) -2.63338
(3,2,6): (2,2,6) 1.31858 (3,1,6) 1.31721 (3,2,5) -1.588979E-03 (3,2,7) 1.469333E-03 (3,3,6) -2.63356
(3,2,7): (2,2,7) 1.31865 (3,1,7) 1.31734 (3,2,6) -1.469333E-03 (3,2,8) 1.196269E-03 (3,3,7) -2.63370
(3,2,8): (2,2,8) 1.31867 (3,1,8) 1.31750 (3,2,7) -1.196269E-03 (3,2,9) 9.366902E-04 (3,3,8) -2.63373
(3,2,9): (2,2,9) 1.31862 (3,1,9) 1.31754 (3,2,8) -9.366902E-04 (3,2,10) 9.376385E-04 (3,3,9) -2.63365
(3,2,10): (2,2,10) 1.31864 (3,1,10) 1.31720 (3,2,9) -9.376385E-04 (3,3,10) -2.63340
(3,3,1): (2,3,1) 1.31862 (3,2,1) 2.63309 (3,3,2) -6.782275E-04 (3,4,1) -3.94923
(3,3,2): (2,3,2) 1.31849 (3,2,2) 2.63298 (3,3,1) 6.782275E-04 (3,3,3) 4.441554E-04 (3,4,2) -3.94901
(3,3,3): (2,3,3) 1.31844 (3,2,3) 2.63293 (3,3,2) -4.441554E-04 (3,3,4) 7.189034E-04 (3,4,3) -3.94885
(3,3,4): (2,3,4) 1.31848 (3,2,4) 2.63312 (3,3,3) -7.189034E-04 (3,3,5) 1.281055E-03 (3,4,4) -3.94904
(3,3,5): (2,3,5) 1.31851 (3,2,5) 2.63338 (3,3,4) -1.281055E-03 (3,3,6) 1.405908E-03 (3,4,5) -3.94945
(3,3,6): (2,3,6) 1.31855 (3,2,6) 2.63356 (3,3,5) -1.405908E-03 (3,3,7) 1.337287E-03 (3,4,6) -3.94980
(3,3,7): (2,3,7) 1.31859 (3,2,7) 2.63370 (3,3,6) -1.337287E-03 (3,3,8) 1.163363E-03 (3,4,7) -3.94999
(3,3,8): (2,3,8) 1.31860 (3,2,8) 2.63373 (3,3,7) -1.163363E-03 (3,3,9) 1.018005E-03 (3,4,8) -3.94996
(3,3,9): (2,3,9) 1.31859 (3,2,9) 2.63365 (3,3,8) -1.018005E-03 (3,3,10) 1.180485E-03 (3,4,9) -3.94978
(3,3,10): (2,3,10) 1.31871 (3,2,10) 2.63340 (3,3,9) -1.180485E-03 (3,4,10) -3.94954
(3,4,1): (2,4,1) 1.31874 (3,3,1) 3.94923 (3,4,2) -4.509498E-04 (3,5,1) -5.26530
(3,4,2): (2,4,2) 1.31860 (3,3,2) 3.94901 (3,4,1) 4.509498E-04 (3,4,3) 5.978702E-04 (3,5,2) -5.26505
(3,4,3): (2,4,3) 1.31851 (3,3,3) 3.94885 (3,4,2) -5.978702E-04 (3,4,4) 5.331754E-04 (3,5,3) -5.26494
(3,4,4): (2,4,4) 1.31851 (3,3,4) 3.94904 (3,4,3) -5.331754E-04 (3,4,5) 8.724398E-04 (3,5,4) -5.26494
(3,4,5): (2,4,5) 1.31853 (3,3,5) 3.94945 (3,4,4) -8.724398E-04 (3,4,6) 1.056306E-03 (3,5,5) -5.26516
(3,4,6): (2,4,6) 1.31855 (3,3,6) 3.94980 (3,4,5) -1.056306E-03 (3,4,7) 1.145095E-03 (3,5,6) -5.26539
(3,4,7): (2,4,7) 1.31857 (3,3,7) 3.94999 (3,4,6) -1.145095E-03 (3,4,8) 1.187779E-03 (3,5,7) -5.26555
(3,4,8): (2,4,8) 1.31859 (3,3,8) 3.94996 (3,4,7) -1.187779E-03 (3,4,9) 1.203312E-03 (3,5,8) -5.26556
(3,4,9): (2,4,9) 1.31863 (3,3,9) 3.94978 (3,4,8) -1.203312E-03 (3,4,10) 1.415491E-03 (3,5,9) -5.26550
(3,4,10): (2,4,10) 1.31876 (3,3,10) 3.94954 (3,4,9) -1.415491E-03 (3,5,10) -5.26559
(3,5,1): (2,5,1) 1.31579 (3,4,1) 5.26530 (3,5,2) -1.967188E-04 (3,6,1) -6.57884
(3,5,2): (2,5,2) 1.31572 (3,4,2) 5.26505 (3,5,1) 1.967188E-04 (3,5,3) 7.089713E-04 (3,6,2) -6.57859
(3,5,3): (2,5,3) 1.31565 (3,4,3) 5.26494 (3,5,2) -7.089713E-04 (3,5,4) 5.241383E-04 (3,6,3) -6.57883
(3,5,4): (2,5,4) 1.31560 (3,4,4) 5.26494 (3,5,3) -5.241383E-04 (3,5,5) 6.587733E-04 (3,6,4) -6.57901
(3,5,5): (2,5,5) 1.31558 (3,4,5) 5.26516 (3,5,4) -6.587733E-04 (3,5,6) 8.232134E-04 (3,6,5) -6.57922
(3,5,6): (2,5,6) 1.31557 (3,4,6) 5.26539 (3,5,5) -8.232134E-04 (3,5,7) 9.898896E-04 (3,6,6) -6.57940
(3,5,7): (2,5,7) 1.31559 (3,4,7) 5.26555 (3,5,6) -9.898896E-04 (3,5,8) 1.172118E-03 (3,6,7) -6.57952
(3,5,8): (2,5,8) 1.31562 (3,4,8) 5.26556 (3,5,7) -1.172118E-03 (3,5,9) 1.261447E-03 (3,6,8) -6.57963
(3,5,9): (2,5,9) 1.31568 (3,4,9) 5.26550 (3,5,8) -1.261447E-03 (3,5,10) 1.327161E-03 (3,6,9) -6.57976
(3,5,10): (2,5,10) 1.31581 (3,4,10) 5.26559 (3,5,9) -1.327161E-03 (3,6,10) -6.58003
(3,6,1): (2,6,1) 1.25818 (3,5,1) 6.57884 (3,6,2) 4.869517E-05 (3,7,1) -7.83602
(3,6,2): (2,6,2) 1.25816 (3,5,2) 6.57859 (3,6,1) -4.869517E-05 (3,6,3) 4.742024E-04 (3,7,2) -7.83552
(3,6,3): (2,6,3) 1.25816 (3,5,3) 6.57883 (3,6,2) -4.742024E-04 (3,6,4) 3.432420E-04 (3,7,3) -7.83564
(3,6,4): (2,6,4) 1.25811 (3,5,4) 6.57901 (3,6,3) -3.432420E-04 (3,6,5) 4.437625E-04 (3,7,4) -7.83575
(3,6,5): (2,6,5) 1.25808 (3,5,5) 6.57922 (3,6,4) -4.437625E-04 (3,6,6) 6.479245E-04 (3,7,5) -7.83588
(3,6,6): (2,6,6) 1.25807 (3,5,6) 6.57940 (3,6,5) -6.479245E-04 (3,6,7) 8.643616E-04 (3,7,6) -7.83605
(3,6,7): (2,6,7) 1.25808 (3,5,7) 6.57952 (3,6,6) -8.643616E-04 (3,6,8) 1.063087E-03 (3,7,7) -7.83625
(3,6,8): (2,6,8) 1.25811 (3,5,8) 6.57963 (3,6,7) -1.063087E-03 (3,6,9) 1.129942E-03 (3,7,8) -7.83654
(3,6,9): (2,6,9) 1.25815 (3,5,9) 6.57976 (3,6,8) -1.129942E-03 (3,6,10) 1.054825E-03 (3,7,9) -7.83699
(3,6,10): (2,6,10) 1.25822 (3,5,10) 6.58003 (3,6,9) -1.054825E-03 (3,7,10) -7.83756
(3,7,1): (2,7,1) 0.278229 (3,6,1) 7.83602 (3,7,2) 5.487585E-04 (3,8,1) -8.11494
(3,7,2): (2,7,2) 0.278180 (3,6,2) 7.83552 (3,7,1) -5.487585E-04 (3,7,3) 3.477481E-04 (3,8,2) -8.11500
(3,7,3): (2,7,3) 0.278184 (3,6,3) 7.83564 (3,7,2) -3.477481E-04 (3,7,4) 2.388784E-04 (3,8,3) -8.11517
(3,7,4): (2,7,4) 0.278149 (3,6,4) 7.83575 (3,7,3) -2.388784E-04 (3,7,5) 3.072597E-04 (3,8,4) -8.11526
(3,7,5): (2,7,5) 0.278119 (3,6,5) 7.83588 (3,7,4) -3.072597E-04 (3,7,6) 4.801251E-04 (3,8,5) -8.11531
(3,7,6): (2,7,6) 0.278105 (3,6,6) 7.83605 (3,7,5) -4.801251E-04 (3,7,7) 6.687794E-04 (3,8,6) -8.11542
(3,7,7): (2,7,7) 0.278108 (3,6,7) 7.83625 (3,7,6) -6.687794E-04 (3,7,8) 7.754779E-04 (3,8,7) -8.11563
(3,7,8): (2,7,8) 0.278130 (3,6,8) 7.83654 (3,7,7) -7.754779E-04 (3,7,9) 6.796859E-04 (3,8,8) -8.11593
(3,7,9): (2,7,9) 0.278154 (3,6,9) 7.83699 (3,7,8) -6.796859E-04 (3,7,10) 4.821507E-04 (3,8,9) -8.11634
(3,7,10): (2,7,10) 0.278296 (3,6,10) 7.83756 (3,7,9) -4.821507E-04 (3,8,10) -8.11679
(3,8,1): (2,8,1) -16.2667 (3,7,1) 8.11494 (3,8,2) 4.832994E-04 (3,9,1) 8.15094
(3,8,2): (2,8,2) -16.2669 (3,7,2) 8.11500 (3,8,1) -4.832994E-04 (3,8,3) 1.766222E-04 (3,9,2) 8.15111
(3,8,3): (2,8,3) -16.2670 (3,7,3) 8.11517 (3,8,2) -1.766222E-04 (3,8,4) 1.543701E-04 (3,9,3) 8.15109
(3,8,4): (2,8,4) -16.2670 (3,7,4) 8.11526 (3,8,3) -1.543701E-04 (3,8,5) 2.558324E-04 (3,9,4) 8.15108
(3,8,5): (2,8,5) -16.2672 (3,7,5) 8.11531 (3,8,4) -2.558324E-04 (3,8,6) 3.686311E-04 (3,9,5) 8.15109
(3,8,6): (2,8,6) -16.2673 (3,7,6) 8.11542 (3,8,5) -3.686311E-04 (3,8,7) 4.627796E-04 (3,9,6) 8.15108
(3,8,7): (2,8,7) -16.2675 (3,7,7) 8.11563 (3,8,6) -4.627796E-04 (3,8,8) 4.677104E-04 (3,9,7) 8.15098
(3,8,8): (2,8,8) -16.2677 (3,7,8) 8.11593 (3,8,7) -4.677104E-04 (3,8,9) 2.752809E-04 (3,9,8) 8.15074
(3,8,9): (2,8,9) -16.2678 (3,7,9) 8.11634 (3,8,8) -2.752809E-04 (3,8,10) 3.260594E-05 (3,9,9) 8.15036
(3,8,10): (2,8,10) -16.2679 (3,7,10) 8.11679 (3,8,9) -3.260594E-05 (3,9,10) 8.14996
(3,9,1): (2,9,1) 0.278358 (3,8,1) -8.15094 (3,9,2) 6.524518E-04 (3,10,1) 7.87012
(3,9,2): (2,9,2) 0.278312 (3,8,2) -8.15111 (3,9,1) -6.524518E-04 (3,9,3) 1.610453E-04 (3,10,2) 7.87008
(3,9,3): (2,9,3) 0.278311 (3,8,3) -8.15109 (3,9,2) -1.610453E-04 (3,9,4) 1.390903E-04 (3,10,3) 7.87021
(3,9,4): (2,9,4) 0.278304 (3,8,4) -8.15108 (3,9,3) -1.390903E-04 (3,9,5) 2.717008E-04 (3,10,4) 7.87033
(3,9,5): (2,9,5) 0.278302 (3,8,5) -8.15109 (3,9,4) -2.717008E-04 (3,9,6) 3.575052E-04 (3,10,5) 7.87040
(3,9,6): (2,9,6) 0.278309 (3,8,6) -8.15108 (3,9,5) -3.575052E-04 (3,9,7) 3.635439E-04 (3,10,6) 7.87039
(3,9,7): (2,9,7) 0.278331 (3,8,7) -8.15098 (3,9,6) -3.635439E-04 (3,9,8) 2.220614E-04 (3,10,7) 7.87034
(3,9,8): (2,9,8) 0.278356 (3,8,8) -8.15074 (3,9,7) -2.220614E-04 (3,9,9) -1.053643E-04 (3,10,8) 7.87024
(3,9,9): (2,9,9) 0.278354 (3,8,9) -8.15036 (3,9,8) 1.053643E-04 (3,9,10) -3.623433E-04 (3,10,9) 7.87001
(3,9,10): (2,9,10) 0.278414 (3,8,10) -8.14996 (3,9,9) 3.623433E-04 (3,10,10) 7.86983
(3,10,1): (2,10,1) 1.25868 (3,9,1) -7.87012 (3,10,2) 6.137031E-04 (3,11,1) 6.60976
(3,10,2): (2,10,2) 1.25876 (3,9,2) -7.87008 (3,10,1) -6.137031E-04 (3,10,3) 2.890422E-04 (3,11,2) 6.60990
(3,10,3): (2,10,3) 1.25874 (3,9,3) -7.87021 (3,10,2) -2.890422E-04 (3,10,4) 2.608779E-04 (3,11,3) 6.61009
(3,10,4): (2,10,4) 1.25874 (3,9,4) -7.87033 (3,10,3) -2.608779E-04 (3,10,5) 3.381748E-04 (3,11,4) 6.61019
(3,10,5): (2,10,5) 1.25874 (3,9,5) -7.87040 (3,10,4) -3.381748E-04 (3,10,6) 3.533223E-04 (3,11,5) 6.61017
(3,10,6): (2,10,6) 1.25876 (3,9,6) -7.87039 (3,10,5) -3.533223E-04 (3,10,7) 3.111346E-04 (3,11,6) 6.61004
(3,10,7): (2,10,7) 1.25880 (3,9,7) -7.87034 (3,10,6) -3.111346E-04 (3,10,8) 1.216781E-04 (3,11,7) 6.60980
(3,10,8): (2,10,8) 1.25885 (3,9,8) -7.87024 (3,10,7) -1.216781E-04 (3,10,9) -3.299467E-04 (3,11,8) 6.60959
(3,10,9): (2,10,9) 1.25886 (3,9,9) -7.87001 (3,10,8) 3.299467E-04 (3,10,10) -5.441193E-04 (3,11,9) 6.60938
(3,10,10): (2,10,10) 1.25879 (3,9,10) -7.86983 (3,10,9) 5.441193E-04 (3,11,10) 6.60922
(3,11,1): (2,11,1) 1.31644 (3,10,1) -6.60976 (3,11,2) 7.551307E-04 (3,12,1) 5.29089
(3,11,2): (2,11,2) 1.31643 (3,10,2) -6.60990 (3,11,1) -7.551307E-04 (3,11,3) 4.774311E-04 (3,12,2) 5.29127
(3,11,3): (2,11,3) 1.31642 (3,10,3) -6.61009 (3,11,2) -4.774311E-04 (3,11,4) 3.634246E-04 (3,12,3) 5.29157
(3,11,4): (2,11,4) 1.31643 (3,10,4) -6.61019 (3,11,3) -3.634246E-04 (3,11,5) 3.249012E-04 (3,12,4) 5.29167
(3,11,5): (2,11,5) 1.31644 (3,10,5) -6.61017 (3,11,4) -3.249012E-04 (3,11,6) 2.147227E-04 (3,12,5) 5.29160
(3,11,6): (2,11,6) 1.31646 (3,10,6) -6.61004 (3,11,5) -2.147227E-04 (3,11,7) 7.382822E-05 (3,12,6) 5.29143
(3,11,7): (2,11,7) 1.31649 (3,10,7) -6.60980 (3,11,6) -7.382822E-05 (3,11,8) -8.611542E-05 (3,12,7) 5.29119
(3,11,8): (2,11,8) 1.31655 (3,10,8) -6.60959 (3,11,7) 8.611542E-05 (3,11,9) -5.399782E-04 (3,12,8) 5.29098
(3,11,9): (2,11,9) 1.31661 (3,10,9) -6.60938 (3,11,8) 5.399782E-04 (3,11,10) -7.084849E-04 (3,12,9) 5.29081
(3,11,10): (2,11,10) 1.31654 (3,10,10) -6.60922 (3,11,9) 7.084849E-04 (3,12,10) 5.29060
(3,12,1): (2,12,1) 1.31951 (3,11,1) -5.29089 (3,12,2) 1.143024E-03 (3,13,1) 3.96942
(3,12,2): (2,12,2) 1.31958 (3,11,2) -5.29127 (3,12,1) -1.143024E-03 (3,12,3) 7.790407E-04 (3,13,2) 3.96980
(3,12,3): (2,12,3) 1.31959 (3,11,3) -5.29157 (3,12,2) -7.790407E-04 (3,12,4) 4.600358E-04 (3,13,3) 3.96991
(3,12,4): (2,12,4) 1.31960 (3,11,4) -5.29167 (3,12,3) -4.600358E-04 (3,12,5) 2.492376E-04 (3,13,4) 3.96986
(3,12,5): (2,12,5) 1.31960 (3,11,5) -5.29160 (3,12,4) -2.492376E-04 (3,12,6) 4.996965E-05 (3,13,5) 3.96964
(3,12,6): (2,12,6) 1.31959 (3,11,6) -5.29143 (3,12,5) -4.996965E-05 (3,12,7) -1.630056E-04 (3,13,6) 3.96935
(3,12,7): (2,12,7) 1.31962 (3,11,7) -5.29119 (3,12,6) 1.630056E-04 (3,12,8) -2.973660E-04 (3,13,7) 3.96902
(3,12,8): (2,12,8) 1.31966 (3,11,8) -5.29098 (3,12,7) 2.973660E-04 (3,12,9) -7.158274E-04 (3,13,8) 3.96873
(3,12,9): (2,12,9) 1.31972 (3,11,9) -5.29081 (3,12,8) 7.158274E-04 (3,12,10) -9.175889E-04 (3,13,9) 3.96851
(3,12,10): (2,12,10) 1.31967 (3,11,10) -5.29060 (3,12,9) 9.175889E-04 (3,13,10) 3.96821
(3,13,1): (2,13,1) 1.31963 (3,12,1) -3.96942 (3,13,2) 1.520760E-03 (3,14,1) 2.64688
(3,13,2): (2,13,2) 1.31973 (3,12,2) -3.96980 (3,13,1) -1.520760E-03 (3,13,3) 8.825115E-04 (3,14,2) 2.64686
(3,13,3): (2,13,3) 1.31980 (3,12,3) -3.96991 (3,13,2) -8.825115E-04 (3,13,4) 4.114608E-04 (3,14,3) 2.64667
(3,13,4): (2,13,4) 1.31980 (3,12,4) -3.96986 (3,13,3) -4.114608E-04 (3,13,5) 3.459203E-05 (3,14,4) 2.64651
(3,13,5): (2,13,5) 1.31978 (3,12,5) -3.96964 (3,13,4) -3.459203E-05 (3,13,6) -2.460832E-04 (3,14,5) 2.64632
(3,13,6): (2,13,6) 1.31975 (3,12,6) -3.96935 (3,13,5) 2.460832E-04 (3,13,7) -4.935963E-04 (3,14,6) 2.64610
(3,13,7): (2,13,7) 1.31974 (3,12,7) -3.96902 (3,13,6) 4.935963E-04 (3,13,8) -5.821916E-04 (3,14,7) 2.64584
(3,13,8): (2,13,8) 1.31975 (3,12,8) -3.96873 (3,13,7) 5.821916E-04 (3,13,9) -9.322705E-04 (3,14,8) 2.64555
(3,13,9): (2,13,9) 1.31979 (3,12,9) -3.96851 (3,13,8) 9.322705E-04 (3,13,10) -1.223945E-03 (3,14,9) 2.64530
(3,13,10): (2,13,10) 1.31969 (3,12,10) -3.96821 (3,13,9) 1.223945E-03 (3,14,10) 2.64496
(3,14,1): (2,14,1) 1.31965 (3,13,1) -2.64688 (3,14,2) 1.506414E-03 (3,15,1) 1.32350
(3,14,2): (2,14,2) 1.31987 (3,13,2) -2.64686 (3,14,1) -1.506414E-03 (3,14,3) 6.830447E-04 (3,15,2) 1.32253
(3,14,3): (2,14,3) 1.31997 (3,13,3) -2.64667 (3,14,2) -6.830447E-04 (3,14,4) 2.569802E-04 (3,15,3) 1.32226
(3,14,4): (2,14,4) 1.31997 (3,13,4) -2.64651 (3,14,3) -2.569802E-04 (3,14,5) -1.563736E-04 (3,15,4) 1.32208
(3,14,5): (2,14,5) 1.31991 (3,13,5) -2.64632 (3,14,4) 1.563736E-04 (3,14,6) -4.660115E-04 (3,15,5) 1.32194
(3,14,6): (2,14,6) 1.31985 (3,13,6) -2.64610 (3,14,5) 4.660115E-04 (3,14,7) -7.533251E-04 (3,15,6) 1.32186
(3,14,7): (2,14,7) 1.31981 (3,13,7) -2.64584 (3,14,6) 7.533251E-04 (3,14,8) -8.693619E-04 (3,15,7) 1.32180
(3,14,8): (2,14,8) 1.31980 (3,13,8) -2.64555 (3,14,7) 8.693619E-04 (3,14,9) -1.182560E-03 (3,15,8) 1.32165
(3,14,9): (2,14,9) 1.31979 (3,13,9) -2.64530 (3,14,8) 1.182560E-03 (3,14,10) -1.569536E-03 (3,15,9) 1.32148
(3,14,10): (2,14,10) 1.31964 (3,13,10) -2.64496 (3,14,9) 1.569536E-03 (3,15,10) 1.32125
(3,15,1): (2,15,1) 1.31940 (3,14,1) -1.32350 (3,15,2) 5.424728E-04
(3,15,2): (2,15,2) 1.31977 (3,14,2) -1.32253 (3,15,1) -5.424728E-04 (3,15,3) 4.139205E-04
(3,15,3): (2,15,3) 1.31984 (3,14,3) -1.32226 (3,15,2) -4.139205E-04 (3,15,4) 6.814883E-05
(3,15,4): (2,15,4) 1.31984 (3,14,4) -1.32208 (3,15,3) -6.814883E-05 (3,15,5) -2.941435E-04
(3,15,5): (2,15,5) 1.31979 (3,14,5) -1.32194 (3,15,4) 2.941435E-04 (3,15,6) -5.448761E-04
(3,15,6): (2,15,6) 1.31973 (3,14,6) -1.32186 (3,15,5) 5.448761E-04 (3,15,7) -8.161607E-04
(3,15,7): (2,15,7) 1.31968 (3,14,7) -1.32180 (3,15,6) 8.161607E-04 (3,15,8) -1.015736E-03
(3,15,8): (2,15,8) 1.31965 (3,14,8) -1.32165 (3,15,7) 1.015736E-03 (3,15,9) -1.353514E-03
(3,15,9): (2,15,9) 1.31963 (3,14,9) -1.32148 (3,15,8) 1.353514E-03 (3,15,10) -1.799933E-03
(3,15,10): (2,15,10) 1.31945 (3,14,10) -1.32125 (3,15,9) 1.799933E-03
1
  HEAD IN LAYER   1 AT END OF TIME STEP   1 IN STRESS PERIOD    1
  ---------------------------------------------------------------------------

            1           2           3           4           5           6           7           8           9          10
 ........................................................................................................................
   1    45.22       45.22       45.22       45.22       45.22       45.22       45.22       45.22       45.22       45.22    
   2    45.21       45.21       45.21       45.21       45.21       45.21       45.21       45.21       45.21       45.21    
   3    45.21       45.21       45.21       45.21       45.21       45.21       45.21       45.21       45.21       45.21    
   4    45.19       45.19       45.19       45.19       45.19       45.19       45.19       45.19       45.19       45.19    
   5    45.18       45.18       45.18       45.18       45.18       45.18       45.18       45.18       45.18       45.18    
   6    45.16       45.16       45.16       45.16       45.16       45.16       45.16       45.16       45.16       45.16    
   7    45.13       45.13       45.13       45.13       45.13       45.13       45.13       45.13       45.13       45.13    
   8    45.02       45.02       45.02       45.02       45.02       45.02       45.02       45.02       45.02       45.02    
   9    45.13       45.13       45.13       45.13       45.13       45.13       45.13       45.13       45.13       45.13    
  10    45.16       45.16       45.16       45.16       45.16       45.16       45.16       45.16       45.16       45.16    
  11    45.18       45.18       45.18       45.18       45.18       45.18       45.18       45.18       45.18       45.18    
  12    45.20       45.20       45.20       45.20       45.20       45.20       45.20       45.20       45.20       45.20    
  13    45.21       45.21       45.21       45.21       45.21       45.21       45.21       45.21       45.21       45.21    
  14    45.21       45.21       45.21       45.21       45.21       45.21       45.21       45.21       45.21       45.21    
  15    45.22       45.22       45.22       45.22       45.22       45.22       45.22       45.22       45.22       45.22    
1
  HEAD IN LAYER   2 AT END OF TIME STEP   1 IN STRESS PERIOD    1
  ---------------------------------------------------------------------------

            1           2           3           4           5           6           7           8           9          10
 ........................................................................................................................
   1    45.21       45.21       45.21       45.21       45.21       45.21       45.21       45.21       45.21       45.21    
   2    45.21       45.21       45.21       45.21       45.21       45.21       45.21       45.21       45.21       45.21    
   3    45.20       45.20       45.20       45.20       45.20       45.20       45.20       45.20       45.20       45.20    
   4    45.19       45.19       45.19       45.19       45.19       45.19       45.19       45.19       45.19       45.19    
   5    45.18       45.18       45.18       45.18       45.18       45.18       45.18       45.18       45.18       45.18    
   6    45.16       45.16       45.16       45.16       45.16       45.16       45.16       45.16       45.16       45.16    
   7    45.13       45.13       45.13       45.13       45.13       45.13       45.13       45.13       45.13       45.13    
   8    45.06       45.06       45.06       45.06       45.06       45.06       45.06       45.06       45.06       45.06    
   9    45.13       45.13       45.13       45.13       45.13       45.13       45.13       45.13       45.13       45.13    
  10    45.16       45.16       45.16       45.16       45.16       45.16       45.16       45.16       45.16       45.16    
  11    45.18       45.18       45.18       45.18       45.18       45.18       45.18       45.18       45.18       45.18    
  12    45.19       45.19       45.19       45.19       45.19       45.19       45.19       45.19       45.19       45.19    
  13    45.20       45.20       45.20       45.20       45.20       45.20       45.20       45.20       45.20       45.20    
  14    45.21       45.21       45.21       45.21       45.21       45.21       45.21       45.21       45.21       45.21    
  15    45.21       45.21       45.21       45.21       45.21       45.21       45.21       45.21       45.21       45.21    
1
  HEAD IN LAYER   3 AT END OF TIME STEP   1 IN STRESS PERIOD    1
  ---------------------------------------------------------------------------

            1           2           3           4           5           6           7           8           9          10
 ........................................................................................................................
   1    45.21       45.21       45.21       45.21       45.21       45.21       45.21       45.21       45.21       45.21    
   2    45.21       45.21       45.21       45.21       45.21       45.21       45.21       45.21       45.21       45.21    
   3    45.20       45.20       45.20       45.20       45.20       45.20       45.20       45.20       45.20       45.20    
   4    45.19       45.19       45.19       45.19       45.19       45.19       45.19       45.19       45.19       45.19    
   5    45.17       45.17       45.17       45.17       45.17       45.17       45.17       45.17       45.17       45.17    
   6    45.15       45.15       45.15       45.15       45.15       45.15       45.15       45.15       45.15       45.15    
   7    45.13       45.13       45.13       45.13       45.13       45.13       45.13       45.13       45.13       45.13    
   8    45.11       45.11       45.11       45.11       45.11       45.11       45.11       45.11       45.11       45.11    
   9    45.13       45.13       45.13       45.13       45.13       45.13       45.13       45.13       45.13       45.13    
  10    45.15       45.15       45.15       45.15       45.15       45.15       45.15       45.15       45.15       45.15    
  11    45.17       45.17       45.17       45.17       45.17       45.17       45.17       45.17       45.17       45.17    
  12    45.19       45.19       45.19       45.19       45.19       45.19       45.19       45.19       45.19       45.19    
  13    45.20       45.20       45.20       45.20       45.20       45.20       45.20       45.20       45.20       45.20    
  14    45.21       45.21       45.21       45.21       45.21       45.21       45.21       45.21       45.21       45.21    
  15    45.21       45.21       45.21       45.21       45.21       45.21       45.21       45.21       45.21       45.21    

 HEAD WILL BE SAVED ON UNIT 1014 AT END OF TIME STEP    1, STRESS PERIOD    1


  VOLUME BUDGET FOR ENTIRE MODEL AT END OF TIME STEP    1, STRESS PERIOD   1
  ---------------------------------------------------------------------------------------------------

     CUMULATIVE VOLUME      L**3       RATES FOR THIS TIME STEP      L**3/T          PACKAGE NAME    
     ------------------                 ------------------------                     ----------------

           IN:                                      IN:
           ---                                      ---
                 RIV =           0.0000                   RIV =           0.0000     RIV_0           
                 RCH =         205.4795                   RCH =         205.4795     RCH             

            TOTAL IN =         205.4795              TOTAL IN =         205.4795

          OUT:                                     OUT:
          ----                                     ----
                 RIV =         205.5681                   RIV =         205.5681     RIV_0           
                 RCH =           0.0000                   RCH =           0.0000     RCH             

           TOTAL OUT =         205.5681             TOTAL OUT =         205.5681

            IN - OUT =       8.8696E-02              IN - OUT =       8.8696E-02

 PERCENT DISCREPANCY =          -0.04     PERCENT DISCREPANCY =          -0.04




         TIME SUMMARY AT END OF TIME STEP    1 IN STRESS PERIOD    1
                    SECONDS     MINUTES      HOURS       DAYS        YEARS
                    -----------------------------------------------------------
   TIME STEP LENGTH  86400.      1440.0      24.000      1.0000     2.73785E-03
 STRESS PERIOD TIME  86400.      1440.0      24.000      1.0000     2.73785E-03
         TOTAL TIME  86400.      1440.0      24.000      1.0000     2.73785E-03


end timestep

