                                   MODFLOW 6
                U.S. GEOLOGICAL SURVEY MODULAR HYDROLOGIC MODEL
                       GROUNDWATER TRANSPORT MODEL (GWT)
                            VERSION 6.2.1 02/18/2021

   MODFLOW 6 compiled Feb 18 2021 08:24:05 with IFORT compiler (ver. 19.10.2)

This software has been approved for release by the U.S. Geological 
Survey (USGS). Although the software has been subjected to rigorous 
review, the USGS reserves the right to update the software as needed 
pursuant to further analysis and review. No warranty, expressed or 
implied, is made by the USGS or the U.S. Government as to the 
functionality of the software and related material nor shall the 
fact of release constitute any such warranty. Furthermore, the 
software is released on condition that neither the USGS nor the U.S. 
Government shall be held liable for any damages resulting from its 
authorized or unauthorized use. Also refer to the USGS Water 
Resources Software User Rights Notice for complete use, copyright, 
and distribution information.


System command used to initiate simulation:
mf6.exe

MODFLOW was compiled using uniform precision.

Real Variables
  KIND: 8
  TINY (smallest non-zero value):    2.225074-308
  HUGE (largest value):    1.797693+308
  PRECISION: 15
  BIT SIZE: 64

Integer Variables
  KIND: 4
  HUGE (largest value): 2147483647
  BIT SIZE: 32

Long Integer Variables
  KIND: 8
  HUGE (largest value): 9223372036854775807
  BIT SIZE: 64

Logical Variables
  KIND: 4
  BIT SIZE: 32
 

 OPENED .\gwt-sgn.dis
 FILE TYPE:DISV6                  UNIT 1018   STATUS:OLD                 
 FORMAT:FORMATTED              ACCESS:SEQUENTIAL          
 ACTION:READ                


 OPENED .\gwt-sgn.ic
 FILE TYPE:IC6                    UNIT 1019   STATUS:OLD                 
 FORMAT:FORMATTED              ACCESS:SEQUENTIAL          
 ACTION:READ                


 OPENED .\gwt-sgn.adv
 FILE TYPE:ADV6                   UNIT 1020   STATUS:OLD                 
 FORMAT:FORMATTED              ACCESS:SEQUENTIAL          
 ACTION:READ                


 OPENED .\gwt-sgn.dsp
 FILE TYPE:DSP6                   UNIT 1021   STATUS:OLD                 
 FORMAT:FORMATTED              ACCESS:SEQUENTIAL          
 ACTION:READ                


 OPENED .\gwt-sgn.mst
 FILE TYPE:MST6                   UNIT 1022   STATUS:OLD                 
 FORMAT:FORMATTED              ACCESS:SEQUENTIAL          
 ACTION:READ                


 OPENED .\gwt-sgn.ssm
 FILE TYPE:SSM6                   UNIT 1023   STATUS:OLD                 
 FORMAT:FORMATTED              ACCESS:SEQUENTIAL          
 ACTION:READ                


 OPENED .\gwt-sgn.oc
 FILE TYPE:OC6                    UNIT 1024   STATUS:OLD                 
 FORMAT:FORMATTED              ACCESS:SEQUENTIAL          
 ACTION:READ                


 OPENED .\gwt-sgn.cnc
 FILE TYPE:CNC6                   UNIT 1025   STATUS:OLD                 
 FORMAT:FORMATTED              ACCESS:SEQUENTIAL          
 ACTION:READ                


 OPENED .\gwt-sgn.obs
 FILE TYPE:OBS6                   UNIT 1026   STATUS:OLD                 
 FORMAT:FORMATTED              ACCESS:SEQUENTIAL          
 ACTION:READ                

 NAMEFILE OPTIONS:
    FLOWS WILL BE SAVED TO BUDGET FILE SPECIFIED IN OUTPUT CONTROL

 DISV -- VERTEX GRID DISCRETIZATION PACKAGE, VERSION 1 : 12/23/2015 - INPUT READ FROM UNIT 1018


 # File generated by Flopy version 3.3.5 on 11/01/2021 at 14:40:39.

 PROCESSING DISCRETIZATION OPTIONS
    MODEL LENGTH UNIT IS METERS
 END OF DISCRETIZATION OPTIONS

 PROCESSING DISCRETIZATION DIMENSIONS
   NLAY = 1
   NCPL = 19131
   NVERT = 19616
 END OF DISCRETIZATION DIMENSIONS

 PROCESSING GRIDDATA
 END PROCESSING GRIDDATA

 PROCESSING VERTICES
   SUCCESSFULLY READ 19616 (X,Y) COORDINATES
   MINIMUM X COORDINATE =     1516769.15000000    
   MAXIMUM X COORDINATE =     1521957.10000000    
   MINIMUM Y COORDINATE =     5028920.37000000    
   MAXIMUM Y COORDINATE =     5034581.77000000    
 END PROCESSING VERTICES

 PROCESSING CELL2D
   SUCCESSFULLY READ 19131 CELL2D INFORMATION ENTRIES
   MINIMUM X CELL CENTER =     1516799.45000000    
   MAXIMUM X CELL CENTER =     1521926.80000000    
   MINIMUM Y CELL CENTER =     5028950.68000000    
   MAXIMUM Y CELL CENTER =     5034551.46000000    
   MAXIMUM NUMBER OF CELL2D VERTICES IS 8 FOR CELL 9732
 END PROCESSING VERTICES

 FMI -- FLOW MODEL INTERFACE, VERSION 1, 8/29/2017
  FLOWS PROVIDED BY A GWF MODEL IN THIS SIMULATION
 # File generated by Flopy version 3.3.5 on 11/01/2021 at 14:40:41.
 PROCESSING DISPERSION OPTIONS
 END OF DISPERSION OPTIONS

 CNC   -- CNC PACKAGE, VERSION 8, 2/22/2014 INPUT READ FROM UNIT 1025
 # File generated by Flopy version 3.3.5 on 11/01/2021 at 14:40:41.

 PROCESSING CNC OPTIONS
    CNC BOUNDARIES HAVE NAMES IN LAST COLUMN.
 END OF CNC OPTIONS

 PROCESSING CNC DIMENSIONS
    MAXBOUND =      51
 END OF CNC DIMENSIONS

 IC -- INITIAL CONDITIONS PACKAGE, VERSION 8, 3/28/2015 INPUT READ FROM UNIT 1019
 # File generated by Flopy version 3.3.5 on 11/01/2021 at 14:40:41.
 PROCESSING GRIDDATA

     INITIAL HEAD =   0.000000    
 END PROCESSING GRIDDATA

 MST -- MOBILE STORAGE AND TRANSFER PACKAGE, VERSION 1, 7/29/2020 INPUT READ FROM UNIT 1022


 # File generated by Flopy version 3.3.5 on 11/01/2021 at 14:40:41.
 PROCESSING MOBILE STORAGE AND TRANSFER OPTIONS
 END OF MOBILE STORAGE AND TRANSFER OPTIONS
 PROCESSING GRIDDATA

   MOBILE DOMAIN POROSITY =  0.2000000    
 END PROCESSING GRIDDATA

 ADV-- ADVECTION PACKAGE, VERSION 1, 8/25/2017 INPUT READ FROM UNIT 1020


 # File generated by Flopy version 3.3.5 on 11/01/2021 at 14:40:41.
 PROCESSING ADVECTION OPTIONS
    ADVECTION WEIGHTING SCHEME HAS BEEN SET TO: UPSTREAM
 SELECTED ADVECTION SCHEME RESULTS IN AN ASYMMETRIC MATRIX.
 END OF ADVECTION OPTIONS

 DSP-- DISPERSION PACKAGE, VERSION 1, 1/24/2018 INPUT READ FROM UNIT 1021


 PROCESSING GRIDDATA

    DIFFUSION COEFFICIENT =  0.1020000E-08

                      ALH =   30.00000    

                     ATH1 =   3.000000    

                      ATV =   3.000000    
 END PROCESSING GRIDDATA

 SSM -- SOURCE-SINK MIXING PACKAGE, VERSION 1, 8/25/2017 INPUT READ FROM UNIT 1023


 # File generated by Flopy version 3.3.5 on 11/01/2021 at 14:40:41.
 PROCESSING SSM OPTIONS
    SSM FLOW INFORMATION WILL BE PRINTED TO LISTING FILE WHENEVER ICBCFL IS NOT ZERO.
 END OF SSM OPTIONS
 PROCESSING SOURCES
 END PROCESSING SOURCES

The observation utility is active for "GWT-SGN"
 # File generated by Flopy version 3.3.5 on 11/01/2021 at 14:40:41.

Processing observation options:

Text output number of digits of precision set to: 10
The PRINT_INPUT option has been specified.


 OBSERVATIONS READ FROM FILE "gwt-sgn.obs"
 ----------------------------------------------------------------------------------------------------------------------------------------------------------------------------------------------------------------------------
 NAME                                     TYPE                                       TIME         LOCATION DATA                              OUTPUT FILENAME                                                                 
 ----------------------------------------------------------------------------------------------------------------------------------------------------------------------------------------------------------------------------
 PC4_AMS                                  CONTINUOUS  CONCENTRATION                  ALL TIMES    "1 11491"                                  conc_obs.csv                                                                    
 PROF_2                                   CONTINUOUS  CONCENTRATION                  ALL TIMES    "1 5406"                                   conc_obs.csv                                                                    
 PZB                                      CONTINUOUS  CONCENTRATION                  ALL TIMES    "1 5879"                                   conc_obs.csv                                                                    
 PROF_1                                   CONTINUOUS  CONCENTRATION                  ALL TIMES    "1 5344"                                   conc_obs.csv                                                                    
 MW04                                     CONTINUOUS  CONCENTRATION                  ALL TIMES    "1 9457"                                   conc_obs.csv                                                                    
 PP_202                                   CONTINUOUS  CONCENTRATION                  ALL TIMES    "1 7219"                                   conc_obs.csv                                                                    
 PC1_AMS_BIS                              CONTINUOUS  CONCENTRATION                  ALL TIMES    "1 10508"                                  conc_obs.csv                                                                    
 MW07                                     CONTINUOUS  CONCENTRATION                  ALL TIMES    "1 11083"                                  conc_obs.csv                                                                    
 MW05                                     CONTINUOUS  CONCENTRATION                  ALL TIMES    "1 9544"                                   conc_obs.csv                                                                    
 PIEZ13                                   CONTINUOUS  CONCENTRATION                  ALL TIMES    "1 15927"                                  conc_obs.csv                                                                    
 PIEZM7                                   CONTINUOUS  CONCENTRATION                  ALL TIMES    "1 13824"                                  conc_obs.csv                                                                    
 PROF_5                                   CONTINUOUS  CONCENTRATION                  ALL TIMES    "1 12624"                                  conc_obs.csv                                                                    
 MW08                                     CONTINUOUS  CONCENTRATION                  ALL TIMES    "1 13467"                                  conc_obs.csv                                                                    
 PROF_3                                   CONTINUOUS  CONCENTRATION                  ALL TIMES    "1 4955"                                   conc_obs.csv                                                                    
 PROF_6                                   CONTINUOUS  CONCENTRATION                  ALL TIMES    "1 10661"                                  conc_obs.csv                                                                    
 MW02                                     CONTINUOUS  CONCENTRATION                  ALL TIMES    "1 7834"                                   conc_obs.csv                                                                    
 MW01                                     CONTINUOUS  CONCENTRATION                  ALL TIMES    "1 6275"                                   conc_obs.csv                                                                    
 P1003                                    CONTINUOUS  CONCENTRATION                  ALL TIMES    "1 8351"                                   conc_obs.csv                                                                    
 MW03                                     CONTINUOUS  CONCENTRATION                  ALL TIMES    "1 8948"                                   conc_obs.csv                                                                    
 MW06                                     CONTINUOUS  CONCENTRATION                  ALL TIMES    "1 10531"                                  conc_obs.csv                                                                    
 PROF_4                                   CONTINUOUS  CONCENTRATION                  ALL TIMES    "1 6455"                                   conc_obs.csv                                                                    
 PZ7                                      CONTINUOUS  CONCENTRATION                  ALL TIMES    "1 10150"                                  conc_obs.csv                                                                    
 PIEZM8                                   CONTINUOUS  CONCENTRATION                  ALL TIMES    "1 15013"                                  conc_obs.csv                                                                    
 PIEZM1                                   CONTINUOUS  CONCENTRATION                  ALL TIMES    "1 12447"                                  conc_obs.csv                                                                    
 PIEZM2                                   CONTINUOUS  CONCENTRATION                  ALL TIMES    "1 13370"                                  conc_obs.csv                                                                    
 PIEZM3                                   CONTINUOUS  CONCENTRATION                  ALL TIMES    "1 15571"                                  conc_obs.csv                                                                    
 PZP1_BIS                                 CONTINUOUS  CONCENTRATION                  ALL TIMES    "1 7195"                                   conc_obs.csv                                                                    
 P1002                                    CONTINUOUS  CONCENTRATION                  ALL TIMES    "1 8847"                                   conc_obs.csv                                                                    
 PIEZ14                                   CONTINUOUS  CONCENTRATION                  ALL TIMES    "1 16078"                                  conc_obs.csv                                                                    
 PIEZM6                                   CONTINUOUS  CONCENTRATION                  ALL TIMES    "1 15916"                                  conc_obs.csv                                                                    
 PIEZ15                                   CONTINUOUS  CONCENTRATION                  ALL TIMES    "1 16227"                                  conc_obs.csv                                                                    
 PIEZ17                                   CONTINUOUS  CONCENTRATION                  ALL TIMES    "1 16223"                                  conc_obs.csv                                                                    
 PIEZ16                                   CONTINUOUS  CONCENTRATION                  ALL TIMES    "1 16228"                                  conc_obs.csv                                                                    
 PIEZM5                                   CONTINUOUS  CONCENTRATION                  ALL TIMES    "1 15750"                                  conc_obs.csv                                                                    
 PIEZ11                                   CONTINUOUS  CONCENTRATION                  ALL TIMES    "1 15748"                                  conc_obs.csv                                                                    
 PIEZ9                                    CONTINUOUS  CONCENTRATION                  ALL TIMES    "1 15294"                                  conc_obs.csv                                                                    
 PROF_11                                  CONTINUOUS  CONCENTRATION                  ALL TIMES    "1 10378"                                  conc_obs.csv                                                                    
 PC2_AMS                                  CONTINUOUS  CONCENTRATION                  ALL TIMES    "1 9876"                                   conc_obs.csv                                                                    
 PC3_AMS                                  CONTINUOUS  CONCENTRATION                  ALL TIMES    "1 10949"                                  conc_obs.csv                                                                    
 PIEZ8                                    CONTINUOUS  CONCENTRATION                  ALL TIMES    "1 14962"                                  conc_obs.csv                                                                    
 PIEZ7                                    CONTINUOUS  CONCENTRATION                  ALL TIMES    "1 14589"                                  conc_obs.csv                                                                    
 PIEZ6                                    CONTINUOUS  CONCENTRATION                  ALL TIMES    "1 13794"                                  conc_obs.csv                                                                    
 PIEZ5                                    CONTINUOUS  CONCENTRATION                  ALL TIMES    "1 13774"                                  conc_obs.csv                                                                    
 PIEZ3                                    CONTINUOUS  CONCENTRATION                  ALL TIMES    "1 13336"                                  conc_obs.csv                                                                    
 PIEZ2                                    CONTINUOUS  CONCENTRATION                  ALL TIMES    "1 12883"                                  conc_obs.csv                                                                    
 PIEZ1                                    CONTINUOUS  CONCENTRATION                  ALL TIMES    "1 12424"                                  conc_obs.csv                                                                    
 PROF_21                                  CONTINUOUS  CONCENTRATION                  ALL TIMES    "1 13250"                                  conc_obs.csv                                                                    
 PZ18                                     CONTINUOUS  CONCENTRATION                  ALL TIMES    "1 14511"                                  conc_obs.csv                                                                    
 PZ20                                     CONTINUOUS  CONCENTRATION                  ALL TIMES    "1 14861"                                  conc_obs.csv                                                                    
 PZ4                                      CONTINUOUS  CONCENTRATION                  ALL TIMES    "1 8789"                                   conc_obs.csv                                                                    
 PZ1                                      CONTINUOUS  CONCENTRATION                  ALL TIMES    "1 12744"                                  conc_obs.csv                                                                    
 MM35                                     CONTINUOUS  CONCENTRATION                  ALL TIMES    "1 16615"                                  conc_obs.csv                                                                    
 MM97                                     CONTINUOUS  CONCENTRATION                  ALL TIMES    "1 1501"                                   conc_obs.csv                                                                    
 MM32                                     CONTINUOUS  CONCENTRATION                  ALL TIMES    "1 8698"                                   conc_obs.csv                                                                    
 PZ_ALER                                  CONTINUOUS  CONCENTRATION                  ALL TIMES    "1 14495"                                  conc_obs.csv                                                                    
 PROF_22                                  CONTINUOUS  CONCENTRATION                  ALL TIMES    "1 14506"                                  conc_obs.csv                                                                    
 SP1_PZEST                                CONTINUOUS  CONCENTRATION                  ALL TIMES    "1 12317"                                  conc_obs.csv                                                                    
 ----------------------------------------------------------------------------------------------------------------------------------------------------------------------------------------------------------------------------


      THE LAST TIME STEP WILL BE PRINTED
      THE LAST TIME STEP WILL BE PRINTED
 # File generated by Flopy version 3.3.5 on 11/01/2021 at 14:40:41.

 PROCESSING OC OPTIONS

    BUDGET INFORMATION WILL BE WRITTEN TO:
      UNIT NUMBER: 1045
      FILE NAME: gwt-sgn.cbc

 OPENED gwt-sgn.cbc
 FILE TYPE:DATA(BINARY)   UNIT 1045   STATUS:REPLACE             
 FORMAT:UNFORMATTED            ACCESS:STREAM              
 ACTION:READWRITE           

    CONCENTRATION INFORMATION WILL BE WRITTEN TO:
      UNIT NUMBER: 1046
      FILE NAME: gwt-sgn.ucn

 OPENED gwt-sgn.ucn
 FILE TYPE:DATA(BINARY)   UNIT 1046   STATUS:REPLACE             
 FORMAT:UNFORMATTED            ACCESS:STREAM              
 ACTION:READWRITE           

 END OF OC OPTIONS

start timestep kper="1" kstp="1" mode="normal"


 BEGIN READING OUTPUT CONTROL FOR STRESS PERIOD 1
      THE LAST TIME STEP WILL BE SAVED
      THE LAST TIME STEP WILL BE SAVED
      THE LAST TIME STEP WILL BE PRINTED
      THE LAST TIME STEP WILL BE PRINTED

 END READING OUTPUT CONTROL FOR STRESS PERIOD 1

 XT3D is active.



end timestep


start timestep kper="1" kstp="2" mode="normal"


end timestep


start timestep kper="1" kstp="3" mode="normal"


end timestep


start timestep kper="1" kstp="4" mode="normal"

 UBDSV1 SAVING  STORAGE-AQUEOUS ON UNIT   1045 AT TIME STEP      4, STRESS PERIOD      1
 UBDSV1 SAVING     FLOW-JA-FACE ON UNIT   1045 AT TIME STEP      4, STRESS PERIOD      1
 UBDSV06 SAVING  SOURCE-SINK MIX IN MODEL GWT-SGN          PACKAGE GWT-SGN         CONNECTED TO MODEL GWT-SGN          PACKAGE SSM              ON UNIT   1045 AT TIME STEP      4, STRESS PERIOD      1

 SSM PACKAGE (SSM) FLOW RATES   PERIOD      1   STEP        4
 ----------------------------------------------------------------
   NUMBER   CELLID                    RATE         PACKAGE NAME  
 ----------------------------------------------------------------
     1      (1,4737)              0.0000000           WEL_0      
     2      (1,4736)              0.0000000           WEL_0      
     3      (1,4743)              0.0000000           WEL_0      
     4      (1,4740)              0.0000000           WEL_0      
     5      (1,5139)              0.0000000           WEL_0      
     6      (1,5562)              0.0000000           WEL_0      
     7      (1,5992)              0.0000000           WEL_0      
     8      (1,5978)              0.0000000           WEL_0      
     9      (1,5548)              0.0000000           WEL_0      
     10     (1,5545)              0.0000000           WEL_0      
     11     (1,5528)              0.0000000           WEL_0      
     12     (1,10013)             0.0000000           WEL_0      
     13     (1,10026)             0.0000000           WEL_0      
     14     (1,10544)             0.0000000           WEL_0      
     15     (1,10556)             0.0000000           WEL_0      
     16     (1,10569)             0.0000000           WEL_0      
     17     (1,11077)             0.0000000           WEL_0      
     18     (1,11084)             0.0000000           WEL_0      
     19     (1,11097)             0.0000000           WEL_0      
     20     (1,11596)             0.0000000           WEL_0      
     21     (1,11603)             0.0000000           WEL_0      
     22     (1,5113)              0.0000000           WEL_0      
     23     (1,12785)             0.0000000           WEL_0      
     24     (1,13253)             0.0000000           WEL_0      
     25     (1,13254)             0.0000000           WEL_0      
     26     (1,13254)             0.0000000           WEL_0      
     27     (1,13255)             0.0000000           WEL_0      
     28     (1,14503)             0.0000000           WEL_0      
     29     (1,14506)             0.0000000           WEL_0      
     30     (1,14506)             0.0000000           WEL_0      
     31     (1,14505)             0.0000000           WEL_0      
     32     (1,14508)             0.0000000           WEL_0      
     33     (1,13677)             0.0000000           WEL_0      
     34     (1,13680)             0.0000000           WEL_0      
     35     (1,13681)             0.0000000           WEL_0      
     36     (1,13246)             0.0000000           WEL_0      
     37     (1,14487)             0.0000000           WEL_0      
     38     (1,14856)             0.0000000           WEL_0      
     39     (1,14855)             0.0000000           WEL_0      
     40     (1,14858)             0.0000000           WEL_0      
     41     (1,9876)              0.0000000           WEL_0      
     42     (1,10665)             0.0000000           WEL_0      
     43     (1,10949)             0.0000000           WEL_0      
     44     (1,12784)             0.0000000           WEL_0      
     45     (1,12784)             0.0000000           WEL_0      
     46     (1,13231)             0.0000000           WEL_0      
     47     (1,13231)             0.0000000           WEL_0      
     48     (1,14083)             0.0000000           WEL_0      
     49     (1,14083)             0.0000000           WEL_0      
     50     (1,14081)             0.0000000           WEL_0      
     51     (1,14081)             0.0000000           WEL_0      
     52     (1,2197)             -1.78281506E-22      WEL_0      
     53     (1,1937)             -1.77777995E-22      WEL_0      
     54     (1,1797)             -6.95221265E-11      WEL_0      
     55     (1,1439)              4.15028858E-16      WEL_0      
     56     (1,2673)             -6.48914946E-23      WEL_0      
     57     (1,1624)             -8.30435616E-12      WEL_0      
     58     (1,418)               0.0000000           WEL_0      
     59     (1,3206)              0.0000000           WEL_0      
     60     (1,5474)             -1.37473732E-03      WEL_0      
     61     (1,5879)              0.0000000           WEL_0      
     62     (1,1411)             -1.41352147E-24      WEL_0      
     63     (1,1582)             -1.50548206E-26      WEL_0      
     64     (1,1499)             -2.58455945E-23      WEL_0      
     65     (1,478)               3.50211900E-21      WEL_0      
     66     (1,478)               3.50211900E-21      WEL_0      
     67     (1,3842)              0.0000000           WEL_0      
     68     (1,6600)             -2.84046362E-27      WEL_0      
     69     (1,6138)             -2.75520189E-26      WEL_0      
     70     (1,16480)             0.0000000           WEL_0      
     71     (1,7625)             -5.23069729E-25      WEL_0      
     72     (1,8691)             -1.61437121E-26      WEL_0      
     73     (1,14482)             0.0000000           WEL_0      
     74     (1,14856)             0.0000000           WEL_0      
     75     (1,7561)              0.0000000           WEL_0      
     76     (1,7566)              0.0000000           WEL_0      
     77     (1,1362)              6.58689051E-15      WEL_0      
     78     (1,1449)             -1.27700425E-13      WEL_0      
     79     (1,1535)             -4.58891245E-13      WEL_0      
     80     (1,1531)              0.0000000           WEL_0      
     81     (1,1531)              0.0000000           WEL_0      
     82     (1,1621)              0.0000000           WEL_0      
     83     (1,1621)              0.0000000           WEL_0      
     84     (1,1793)              0.0000000           WEL_0      
     85     (1,1613)              1.88505002E-15      WEL_0      
     86     (1,1352)              0.0000000           WEL_0      
     87     (1,1523)              0.0000000           WEL_0      
     88     (1,1794)             -1.12634583E-14      WEL_0      
     89     (1,1794)             -1.12634583E-14      WEL_0      
     90     (1,1708)              0.0000000           WEL_0      
     91     (1,1794)              0.0000000           WEL_0      
     92     (1,1793)              0.0000000           WEL_0      
     93     (1,1880)              0.0000000           WEL_0      
     94     (1,1880)              0.0000000           WEL_0      
     95     (1,1794)              0.0000000           WEL_0      
     96     (1,4906)              0.0000000           WEL_0      
     97     (1,4532)              0.0000000           WEL_0      
     98     (1,4533)              0.0000000           WEL_0      
     99     (1,4534)              0.0000000           WEL_0      
    100     (1,4906)              0.0000000           WEL_0      
    101     (1,4907)              0.0000000           WEL_0      
    102     (1,7147)              0.0000000           WEL_0      
    103     (1,7147)              0.0000000           WEL_0      
    104     (1,7672)              0.0000000           WEL_0      
    105     (1,7148)              0.0000000           WEL_0      
    106     (1,7673)              0.0000000           WEL_0      
    107     (1,7151)              0.0000000           WEL_0      
    108     (1,7151)              0.0000000           WEL_0      
    109     (1,7150)              0.0000000           WEL_0      
    110     (1,12785)             0.0000000           WEL_0      
    111     (1,1572)              0.0000000           WEL_0      
    112     (1,1572)              0.0000000           WEL_0      
    113     (1,371)               0.0000000           WEL_0      
    114     (1,371)               0.0000000           WEL_0      
    115     (1,461)               0.0000000           WEL_0      
    116     (1,461)               0.0000000           WEL_0      
    117     (1,462)               0.0000000           WEL_0      
    118     (1,462)               0.0000000           WEL_0      
    119     (1,462)               0.0000000           WEL_0      
    120     (1,463)               0.0000000           WEL_0      
    121     (1,1675)              0.0000000           WEL_0      
    122     (1,1760)              0.0000000           WEL_0      
    123     (1,1675)              0.0000000           WEL_0      
    124     (1,1761)              0.0000000           WEL_0      
    125     (1,5078)              0.0000000           WEL_0      
    126     (1,17299)             0.0000000           WEL_0      
    127     (1,17036)             0.0000000           WEL_0      
    128     (1,17205)             0.0000000           WEL_0      
    129     (1,17118)             0.0000000           WEL_0      
    130     (1,521)              -1.15486913E-30      WEL_0      
    131     (1,521)               0.0000000           WEL_0      
    132     (1,11333)             0.0000000           WEL_0      
    133     (1,11333)             0.0000000           WEL_0      
    134     (1,11333)             0.0000000           WEL_0      
    135     (1,12320)             0.0000000           WEL_0      
    136     (1,12320)             0.0000000           WEL_0      
    137     (1,12320)             0.0000000           WEL_0      
    138     (1,12319)             0.0000000           WEL_0      
    139     (1,7585)             -1.80156640E-07      WEL_0      
    140     (1,7040)             -3.59459437E-04      WEL_0      
    141     (1,7591)             -3.07405869E-08      WEL_0      
    142     (1,7058)             -2.01887248E-06      WEL_0      
    143     (1,5638)             -2.36965833E-04      WEL_0      
     1      (1,1)                 0.0000000           DRN_0      
     2      (1,2)                 0.0000000           DRN_0      
     3      (1,3)                 0.0000000           DRN_0      
     4      (1,4)                 0.0000000           DRN_0      
     5      (1,5)                 0.0000000           DRN_0      
     6      (1,6)                 0.0000000           DRN_0      
     7      (1,7)                 0.0000000           DRN_0      
     8      (1,8)                 0.0000000           DRN_0      
     9      (1,9)                 0.0000000           DRN_0      
     10     (1,10)                0.0000000           DRN_0      
     11     (1,11)                0.0000000           DRN_0      
     12     (1,12)                0.0000000           DRN_0      
     13     (1,13)                0.0000000           DRN_0      
     14     (1,14)                0.0000000           DRN_0      
     15     (1,15)                0.0000000           DRN_0      
     16     (1,16)                0.0000000           DRN_0      
     17     (1,17)                0.0000000           DRN_0      
     18     (1,18)                0.0000000           DRN_0      
     19     (1,19)                0.0000000           DRN_0      
     20     (1,20)                0.0000000           DRN_0      
     21     (1,21)                0.0000000           DRN_0      
     22     (1,22)                0.0000000           DRN_0      
     23     (1,23)                0.0000000           DRN_0      
     24     (1,24)                0.0000000           DRN_0      
     25     (1,25)                0.0000000           DRN_0      
     26     (1,26)                0.0000000           DRN_0      
     27     (1,27)                0.0000000           DRN_0      
     28     (1,28)                0.0000000           DRN_0      
     29     (1,29)                0.0000000           DRN_0      
     30     (1,30)                0.0000000           DRN_0      
     31     (1,31)                0.0000000           DRN_0      
     32     (1,32)                0.0000000           DRN_0      
     33     (1,33)                0.0000000           DRN_0      
     34     (1,34)                0.0000000           DRN_0      
     35     (1,35)                0.0000000           DRN_0      
     36     (1,36)                0.0000000           DRN_0      
     37     (1,37)                0.0000000           DRN_0      
     38     (1,38)                0.0000000           DRN_0      
     39     (1,39)                0.0000000           DRN_0      
     40     (1,40)                0.0000000           DRN_0      
     41     (1,41)                0.0000000           DRN_0      
     42     (1,42)                0.0000000           DRN_0      
     43     (1,43)                0.0000000           DRN_0      
     44     (1,44)                0.0000000           DRN_0      
     45     (1,45)                0.0000000           DRN_0      
     46     (1,46)                0.0000000           DRN_0      
     47     (1,47)                0.0000000           DRN_0      
     48     (1,48)                0.0000000           DRN_0      
     49     (1,49)                0.0000000           DRN_0      
     50     (1,50)                0.0000000           DRN_0      
     51     (1,51)                0.0000000           DRN_0      
     52     (1,52)                0.0000000           DRN_0      
     53     (1,53)                0.0000000           DRN_0      
     54     (1,54)                0.0000000           DRN_0      
     55     (1,55)                0.0000000           DRN_0      
     56     (1,56)                0.0000000           DRN_0      
     57     (1,57)                0.0000000           DRN_0      
     58     (1,58)                0.0000000           DRN_0      
     59     (1,59)                0.0000000           DRN_0      
     60     (1,60)                0.0000000           DRN_0      
     61     (1,61)                0.0000000           DRN_0      
     62     (1,62)                0.0000000           DRN_0      
     63     (1,63)                0.0000000           DRN_0      
     64     (1,64)                0.0000000           DRN_0      
     65     (1,65)                0.0000000           DRN_0      
     66     (1,66)                0.0000000           DRN_0      
     67     (1,67)                0.0000000           DRN_0      
     68     (1,68)                0.0000000           DRN_0      
     69     (1,69)                0.0000000           DRN_0      
     70     (1,70)                0.0000000           DRN_0      
     71     (1,71)                0.0000000           DRN_0      
     72     (1,72)                0.0000000           DRN_0      
     73     (1,73)                0.0000000           DRN_0      
     74     (1,74)                0.0000000           DRN_0      
     75     (1,75)                0.0000000           DRN_0      
     76     (1,76)                0.0000000           DRN_0      
     77     (1,77)                0.0000000           DRN_0      
     78     (1,78)                0.0000000           DRN_0      
     79     (1,79)                0.0000000           DRN_0      
     80     (1,80)                0.0000000           DRN_0      
     81     (1,81)                0.0000000           DRN_0      
     82     (1,82)                0.0000000           DRN_0      
     83     (1,83)                0.0000000           DRN_0      
     84     (1,84)                0.0000000           DRN_0      
     85     (1,85)                0.0000000           DRN_0      
     86     (1,86)                0.0000000           DRN_0      
     87     (1,87)                0.0000000           DRN_0      
     88     (1,88)                0.0000000           DRN_0      
     89     (1,89)                0.0000000           DRN_0      
     90     (1,90)                0.0000000           DRN_0      
     91     (1,91)                0.0000000           DRN_0      
     92     (1,92)                0.0000000           DRN_0      
     93     (1,93)                0.0000000           DRN_0      
     94     (1,94)                0.0000000           DRN_0      
     95     (1,95)                0.0000000           DRN_0      
     96     (1,96)                0.0000000           DRN_0      
     97     (1,97)                0.0000000           DRN_0      
     98     (1,98)                0.0000000           DRN_0      
     99     (1,99)                0.0000000           DRN_0      
    100     (1,100)               0.0000000           DRN_0      
    101     (1,101)               0.0000000           DRN_0      
    102     (1,102)               0.0000000           DRN_0      
    103     (1,103)               0.0000000           DRN_0      
    104     (1,104)               0.0000000           DRN_0      
    105     (1,105)               0.0000000           DRN_0      
    106     (1,106)               0.0000000           DRN_0      
    107     (1,107)               0.0000000           DRN_0      
    108     (1,108)               0.0000000           DRN_0      
    109     (1,109)               0.0000000           DRN_0      
    110     (1,110)               0.0000000           DRN_0      
    111     (1,111)               0.0000000           DRN_0      
    112     (1,112)               0.0000000           DRN_0      
    113     (1,113)               0.0000000           DRN_0      
    114     (1,114)               0.0000000           DRN_0      
    115     (1,115)               0.0000000           DRN_0      
    116     (1,116)               0.0000000           DRN_0      
    117     (1,117)               0.0000000           DRN_0      
    118     (1,118)               0.0000000           DRN_0      
    119     (1,119)               0.0000000           DRN_0      
    120     (1,120)               0.0000000           DRN_0      
    121     (1,121)               0.0000000           DRN_0      
    122     (1,122)               0.0000000           DRN_0      
    123     (1,123)               0.0000000           DRN_0      
    124     (1,124)               0.0000000           DRN_0      
    125     (1,125)               0.0000000           DRN_0      
    126     (1,126)               0.0000000           DRN_0      
    127     (1,127)               0.0000000           DRN_0      
    128     (1,128)               0.0000000           DRN_0      
    129     (1,129)               0.0000000           DRN_0      
    130     (1,130)               0.0000000           DRN_0      
    131     (1,131)               0.0000000           DRN_0      
    132     (1,132)               0.0000000           DRN_0      
    133     (1,133)               0.0000000           DRN_0      
    134     (1,134)               0.0000000           DRN_0      
    135     (1,135)               0.0000000           DRN_0      
    136     (1,136)               0.0000000           DRN_0      
    137     (1,137)               0.0000000           DRN_0      
    138     (1,138)               0.0000000           DRN_0      
    139     (1,139)               0.0000000           DRN_0      
    140     (1,140)               0.0000000           DRN_0      
    141     (1,141)               0.0000000           DRN_0      
    142     (1,142)               0.0000000           DRN_0      
    143     (1,143)               0.0000000           DRN_0      
    144     (1,144)               0.0000000           DRN_0      
    145     (1,145)               0.0000000           DRN_0      
    146     (1,146)               0.0000000           DRN_0      
    147     (1,147)               0.0000000           DRN_0      
    148     (1,148)               0.0000000           DRN_0      
    149     (1,149)               0.0000000           DRN_0      
    150     (1,150)               0.0000000           DRN_0      
    151     (1,151)               0.0000000           DRN_0      
    152     (1,152)               0.0000000           DRN_0      
    153     (1,153)               0.0000000           DRN_0      
    154     (1,154)               0.0000000           DRN_0      
    155     (1,155)               0.0000000           DRN_0      
    156     (1,156)               0.0000000           DRN_0      
    157     (1,157)               0.0000000           DRN_0      
    158     (1,158)               0.0000000           DRN_0      
    159     (1,159)               0.0000000           DRN_0      
    160     (1,160)               0.0000000           DRN_0      
    161     (1,161)               0.0000000           DRN_0      
    162     (1,162)               0.0000000           DRN_0      
    163     (1,163)               0.0000000           DRN_0      
    164     (1,164)               0.0000000           DRN_0      
    165     (1,165)               0.0000000           DRN_0      
    166     (1,166)               0.0000000           DRN_0      
    167     (1,167)               0.0000000           DRN_0      
    168     (1,168)               0.0000000           DRN_0      
    169     (1,169)               0.0000000           DRN_0      
    170     (1,170)               0.0000000           DRN_0      
    171     (1,171)               0.0000000           DRN_0      
    172     (1,172)               0.0000000           DRN_0      
    173     (1,173)               0.0000000           DRN_0      
    174     (1,174)               0.0000000           DRN_0      
    175     (1,175)               0.0000000           DRN_0      
    176     (1,176)               0.0000000           DRN_0      
    177     (1,177)               0.0000000           DRN_0      
    178     (1,178)               0.0000000           DRN_0      
    179     (1,179)               0.0000000           DRN_0      
    180     (1,180)               0.0000000           DRN_0      
    181     (1,181)               0.0000000           DRN_0      
    182     (1,182)               0.0000000           DRN_0      
    183     (1,183)               0.0000000           DRN_0      
    184     (1,184)               0.0000000           DRN_0      
    185     (1,185)               0.0000000           DRN_0      
    186     (1,186)               0.0000000           DRN_0      
    187     (1,187)               0.0000000           DRN_0      
    188     (1,188)               0.0000000           DRN_0      
    189     (1,189)               0.0000000           DRN_0      
    190     (1,190)               0.0000000           DRN_0      
    191     (1,191)               0.0000000           DRN_0      
    192     (1,192)               0.0000000           DRN_0      
    193     (1,193)               0.0000000           DRN_0      
    194     (1,194)               0.0000000           DRN_0      
    195     (1,195)               0.0000000           DRN_0      
    196     (1,196)               0.0000000           DRN_0      
    197     (1,197)               0.0000000           DRN_0      
    198     (1,198)               0.0000000           DRN_0      
    199     (1,199)               0.0000000           DRN_0      
    200     (1,200)               0.0000000           DRN_0      
    201     (1,201)               0.0000000           DRN_0      
    202     (1,202)               0.0000000           DRN_0      
    203     (1,203)               0.0000000           DRN_0      
    204     (1,204)               0.0000000           DRN_0      
    205     (1,205)               0.0000000           DRN_0      
    206     (1,206)               0.0000000           DRN_0      
    207     (1,207)               0.0000000           DRN_0      
    208     (1,208)               0.0000000           DRN_0      
    209     (1,209)               0.0000000           DRN_0      
    210     (1,210)               0.0000000           DRN_0      
    211     (1,211)               0.0000000           DRN_0      
    212     (1,212)               0.0000000           DRN_0      
    213     (1,213)               0.0000000           DRN_0      
    214     (1,214)               0.0000000           DRN_0      
    215     (1,215)               0.0000000           DRN_0      
    216     (1,216)               0.0000000           DRN_0      
    217     (1,217)               0.0000000           DRN_0      
    218     (1,218)               0.0000000           DRN_0      
    219     (1,219)               0.0000000           DRN_0      
    220     (1,220)               0.0000000           DRN_0      
    221     (1,221)               0.0000000           DRN_0      
    222     (1,222)               0.0000000           DRN_0      
    223     (1,223)               0.0000000           DRN_0      
    224     (1,224)               0.0000000           DRN_0      
    225     (1,225)               0.0000000           DRN_0      
    226     (1,226)               0.0000000           DRN_0      
    227     (1,227)               0.0000000           DRN_0      
    228     (1,228)               0.0000000           DRN_0      
    229     (1,229)               0.0000000           DRN_0      
    230     (1,230)               0.0000000           DRN_0      
    231     (1,231)               0.0000000           DRN_0      
    232     (1,232)               0.0000000           DRN_0      
    233     (1,233)               0.0000000           DRN_0      
    234     (1,234)               0.0000000           DRN_0      
    235     (1,235)               0.0000000           DRN_0      
    236     (1,236)               0.0000000           DRN_0      
    237     (1,237)               0.0000000           DRN_0      
    238     (1,238)               0.0000000           DRN_0      
    239     (1,239)               0.0000000           DRN_0      
    240     (1,240)               0.0000000           DRN_0      
    241     (1,241)               0.0000000           DRN_0      
    242     (1,242)               0.0000000           DRN_0      
    243     (1,243)               0.0000000           DRN_0      
    244     (1,244)               0.0000000           DRN_0      
    245     (1,245)               0.0000000           DRN_0      
    246     (1,246)               0.0000000           DRN_0      
    247     (1,247)               0.0000000           DRN_0      
    248     (1,248)               0.0000000           DRN_0      
    249     (1,249)               0.0000000           DRN_0      
    250     (1,250)               0.0000000           DRN_0      
    251     (1,251)               0.0000000           DRN_0      
    252     (1,252)               0.0000000           DRN_0      
    253     (1,253)               0.0000000           DRN_0      
    254     (1,254)               0.0000000           DRN_0      
    255     (1,255)               0.0000000           DRN_0      
    256     (1,256)               0.0000000           DRN_0      
    257     (1,257)               0.0000000           DRN_0      
    258     (1,258)               0.0000000           DRN_0      
    259     (1,259)               0.0000000           DRN_0      
    260     (1,260)               0.0000000           DRN_0      
    261     (1,261)               0.0000000           DRN_0      
    262     (1,262)               0.0000000           DRN_0      
    263     (1,263)               0.0000000           DRN_0      
    264     (1,264)               0.0000000           DRN_0      
    265     (1,265)               0.0000000           DRN_0      
    266     (1,266)               0.0000000           DRN_0      
    267     (1,267)               0.0000000           DRN_0      
    268     (1,268)               0.0000000           DRN_0      
    269     (1,269)               0.0000000           DRN_0      
    270     (1,270)               0.0000000           DRN_0      
    271     (1,271)               0.0000000           DRN_0      
    272     (1,272)               0.0000000           DRN_0      
    273     (1,273)               0.0000000           DRN_0      
    274     (1,274)               0.0000000           DRN_0      
    275     (1,275)               0.0000000           DRN_0      
    276     (1,276)               0.0000000           DRN_0      
    277     (1,277)               0.0000000           DRN_0      
    278     (1,278)               0.0000000           DRN_0      
    279     (1,279)               0.0000000           DRN_0      
    280     (1,280)               0.0000000           DRN_0      
    281     (1,281)               0.0000000           DRN_0      
    282     (1,282)               0.0000000           DRN_0      
    283     (1,283)               0.0000000           DRN_0      
    284     (1,284)               0.0000000           DRN_0      
    285     (1,285)               0.0000000           DRN_0      
    286     (1,286)               0.0000000           DRN_0      
    287     (1,287)               0.0000000           DRN_0      
    288     (1,288)               0.0000000           DRN_0      
    289     (1,289)               0.0000000           DRN_0      
    290     (1,290)               0.0000000           DRN_0      
    291     (1,291)               0.0000000           DRN_0      
    292     (1,292)               0.0000000           DRN_0      
    293     (1,293)               0.0000000           DRN_0      
    294     (1,294)               0.0000000           DRN_0      
    295     (1,295)               0.0000000           DRN_0      
    296     (1,296)               0.0000000           DRN_0      
    297     (1,297)               0.0000000           DRN_0      
    298     (1,298)               0.0000000           DRN_0      
    299     (1,299)               0.0000000           DRN_0      
    300     (1,300)               0.0000000           DRN_0      
    301     (1,301)               0.0000000           DRN_0      
    302     (1,302)               0.0000000           DRN_0      
    303     (1,303)               0.0000000           DRN_0      
    304     (1,304)               0.0000000           DRN_0      
    305     (1,305)               0.0000000           DRN_0      
    306     (1,306)               0.0000000           DRN_0      
    307     (1,307)               0.0000000           DRN_0      
    308     (1,308)               0.0000000           DRN_0      
    309     (1,309)               0.0000000           DRN_0      
    310     (1,310)               0.0000000           DRN_0      
    311     (1,311)               0.0000000           DRN_0      
    312     (1,312)               0.0000000           DRN_0      
    313     (1,313)               0.0000000           DRN_0      
    314     (1,314)               0.0000000           DRN_0      
    315     (1,315)               0.0000000           DRN_0      
    316     (1,316)               0.0000000           DRN_0      
    317     (1,317)               0.0000000           DRN_0      
    318     (1,318)               0.0000000           DRN_0      
    319     (1,319)               0.0000000           DRN_0      
    320     (1,320)               0.0000000           DRN_0      
    321     (1,321)               0.0000000           DRN_0      
    322     (1,322)               0.0000000           DRN_0      
    323     (1,323)               0.0000000           DRN_0      
    324     (1,324)               0.0000000           DRN_0      
    325     (1,325)               0.0000000           DRN_0      
    326     (1,326)               0.0000000           DRN_0      
    327     (1,327)               0.0000000           DRN_0      
    328     (1,328)               0.0000000           DRN_0      
    329     (1,329)               0.0000000           DRN_0      
    330     (1,330)               0.0000000           DRN_0      
    331     (1,331)               0.0000000           DRN_0      
    332     (1,332)               0.0000000           DRN_0      
    333     (1,333)               0.0000000           DRN_0      
    334     (1,334)               0.0000000           DRN_0      
    335     (1,335)               0.0000000           DRN_0      
    336     (1,336)               0.0000000           DRN_0      
    337     (1,337)               0.0000000           DRN_0      
    338     (1,338)               0.0000000           DRN_0      
    339     (1,339)               0.0000000           DRN_0      
    340     (1,340)               0.0000000           DRN_0      
    341     (1,341)               0.0000000           DRN_0      
    342     (1,342)               0.0000000           DRN_0      
    343     (1,343)               0.0000000           DRN_0      
    344     (1,344)               0.0000000           DRN_0      
    345     (1,345)               0.0000000           DRN_0      
    346     (1,346)               0.0000000           DRN_0      
    347     (1,347)               0.0000000           DRN_0      
    348     (1,348)               0.0000000           DRN_0      
    349     (1,349)               0.0000000           DRN_0      
    350     (1,350)               0.0000000           DRN_0      
    351     (1,351)               0.0000000           DRN_0      
    352     (1,352)               0.0000000           DRN_0      
    353     (1,353)               0.0000000           DRN_0      
    354     (1,354)               0.0000000           DRN_0      
    355     (1,355)               0.0000000           DRN_0      
    356     (1,356)               0.0000000           DRN_0      
    357     (1,357)               0.0000000           DRN_0      
    358     (1,358)               0.0000000           DRN_0      
    359     (1,359)               0.0000000           DRN_0      
    360     (1,360)               0.0000000           DRN_0      
    361     (1,361)               0.0000000           DRN_0      
    362     (1,362)               0.0000000           DRN_0      
    363     (1,363)               0.0000000           DRN_0      
    364     (1,364)               0.0000000           DRN_0      
    365     (1,365)               0.0000000           DRN_0      
    366     (1,366)               0.0000000           DRN_0      
    367     (1,367)               0.0000000           DRN_0      
    368     (1,368)               0.0000000           DRN_0      
    369     (1,369)               0.0000000           DRN_0      
    370     (1,370)               0.0000000           DRN_0      
    371     (1,371)               0.0000000           DRN_0      
    372     (1,372)               0.0000000           DRN_0      
    373     (1,373)               0.0000000           DRN_0      
    374     (1,374)               0.0000000           DRN_0      
    375     (1,375)               0.0000000           DRN_0      
    376     (1,376)               0.0000000           DRN_0      
    377     (1,377)               0.0000000           DRN_0      
    378     (1,378)               0.0000000           DRN_0      
    379     (1,379)               0.0000000           DRN_0      
    380     (1,380)               0.0000000           DRN_0      
    381     (1,381)               0.0000000           DRN_0      
    382     (1,382)               0.0000000           DRN_0      
    383     (1,383)               0.0000000           DRN_0      
    384     (1,384)               0.0000000           DRN_0      
    385     (1,385)               0.0000000           DRN_0      
    386     (1,386)               0.0000000           DRN_0      
    387     (1,387)               0.0000000           DRN_0      
    388     (1,388)               0.0000000           DRN_0      
    389     (1,389)               0.0000000           DRN_0      
    390     (1,390)               0.0000000           DRN_0      
    391     (1,391)               0.0000000           DRN_0      
    392     (1,392)               0.0000000           DRN_0      
    393     (1,393)               0.0000000           DRN_0      
    394     (1,394)               0.0000000           DRN_0      
    395     (1,395)               0.0000000           DRN_0      
    396     (1,396)               0.0000000           DRN_0      
    397     (1,397)               0.0000000           DRN_0      
    398     (1,398)               0.0000000           DRN_0      
    399     (1,399)               0.0000000           DRN_0      
    400     (1,400)               0.0000000           DRN_0      
    401     (1,401)               0.0000000           DRN_0      
    402     (1,402)               0.0000000           DRN_0      
    403     (1,403)               0.0000000           DRN_0      
    404     (1,404)               0.0000000           DRN_0      
    405     (1,405)               0.0000000           DRN_0      
    406     (1,406)               0.0000000           DRN_0      
    407     (1,407)               0.0000000           DRN_0      
    408     (1,408)               0.0000000           DRN_0      
    409     (1,409)               0.0000000           DRN_0      
    410     (1,410)               0.0000000           DRN_0      
    411     (1,411)               0.0000000           DRN_0      
    412     (1,412)               0.0000000           DRN_0      
    413     (1,413)               0.0000000           DRN_0      
    414     (1,414)               0.0000000           DRN_0      
    415     (1,415)               0.0000000           DRN_0      
    416     (1,416)               0.0000000           DRN_0      
    417     (1,417)               0.0000000           DRN_0      
    418     (1,418)               0.0000000           DRN_0      
    419     (1,419)               0.0000000           DRN_0      
    420     (1,420)               0.0000000           DRN_0      
    421     (1,421)               0.0000000           DRN_0      
    422     (1,422)               0.0000000           DRN_0      
    423     (1,423)               0.0000000           DRN_0      
    424     (1,424)               0.0000000           DRN_0      
    425     (1,425)               0.0000000           DRN_0      
    426     (1,426)               0.0000000           DRN_0      
    427     (1,427)               0.0000000           DRN_0      
    428     (1,428)               0.0000000           DRN_0      
    429     (1,429)               0.0000000           DRN_0      
    430     (1,430)               0.0000000           DRN_0      
    431     (1,431)               0.0000000           DRN_0      
    432     (1,432)               0.0000000           DRN_0      
    433     (1,433)               0.0000000           DRN_0      
    434     (1,434)               0.0000000           DRN_0      
    435     (1,435)               0.0000000           DRN_0      
    436     (1,436)               0.0000000           DRN_0      
    437     (1,437)               0.0000000           DRN_0      
    438     (1,438)               0.0000000           DRN_0      
    439     (1,439)               0.0000000           DRN_0      
    440     (1,440)               0.0000000           DRN_0      
    441     (1,441)               0.0000000           DRN_0      
    442     (1,442)               0.0000000           DRN_0      
    443     (1,443)               0.0000000           DRN_0      
    444     (1,444)               0.0000000           DRN_0      
    445     (1,445)               0.0000000           DRN_0      
    446     (1,446)               0.0000000           DRN_0      
    447     (1,447)               0.0000000           DRN_0      
    448     (1,448)               0.0000000           DRN_0      
    449     (1,449)               0.0000000           DRN_0      
    450     (1,450)               0.0000000           DRN_0      
    451     (1,451)               0.0000000           DRN_0      
    452     (1,452)               0.0000000           DRN_0      
    453     (1,453)               0.0000000           DRN_0      
    454     (1,454)               0.0000000           DRN_0      
    455     (1,455)               0.0000000           DRN_0      
    456     (1,456)               0.0000000           DRN_0      
    457     (1,457)               0.0000000           DRN_0      
    458     (1,458)               0.0000000           DRN_0      
    459     (1,459)               0.0000000           DRN_0      
    460     (1,460)               0.0000000           DRN_0      
    461     (1,461)               0.0000000           DRN_0      
    462     (1,462)               0.0000000           DRN_0      
    463     (1,463)               0.0000000           DRN_0      
    464     (1,464)               0.0000000           DRN_0      
    465     (1,465)               0.0000000           DRN_0      
    466     (1,466)               0.0000000           DRN_0      
    467     (1,467)               0.0000000           DRN_0      
    468     (1,468)               0.0000000           DRN_0      
    469     (1,469)               0.0000000           DRN_0      
    470     (1,470)               0.0000000           DRN_0      
    471     (1,471)               0.0000000           DRN_0      
    472     (1,472)               0.0000000           DRN_0      
    473     (1,473)               0.0000000           DRN_0      
    474     (1,474)               0.0000000           DRN_0      
    475     (1,475)               0.0000000           DRN_0      
    476     (1,476)               0.0000000           DRN_0      
    477     (1,477)               0.0000000           DRN_0      
    478     (1,478)               0.0000000           DRN_0      
    479     (1,479)               0.0000000           DRN_0      
    480     (1,480)               0.0000000           DRN_0      
    481     (1,481)               0.0000000           DRN_0      
    482     (1,482)               0.0000000           DRN_0      
    483     (1,483)               0.0000000           DRN_0      
    484     (1,484)               0.0000000           DRN_0      
    485     (1,485)               0.0000000           DRN_0      
    486     (1,486)               0.0000000           DRN_0      
    487     (1,487)               0.0000000           DRN_0      
    488     (1,488)               0.0000000           DRN_0      
    489     (1,489)               0.0000000           DRN_0      
    490     (1,490)               0.0000000           DRN_0      
    491     (1,491)               0.0000000           DRN_0      
    492     (1,492)               0.0000000           DRN_0      
    493     (1,493)               0.0000000           DRN_0      
    494     (1,494)               0.0000000           DRN_0      
    495     (1,495)               0.0000000           DRN_0      
    496     (1,496)               0.0000000           DRN_0      
    497     (1,497)               0.0000000           DRN_0      
    498     (1,498)               0.0000000           DRN_0      
    499     (1,499)               0.0000000           DRN_0      
    500     (1,500)               0.0000000           DRN_0      
    501     (1,501)               0.0000000           DRN_0      
    502     (1,502)               0.0000000           DRN_0      
    503     (1,503)               0.0000000           DRN_0      
    504     (1,504)               0.0000000           DRN_0      
    505     (1,505)               0.0000000           DRN_0      
    506     (1,506)               0.0000000           DRN_0      
    507     (1,507)               0.0000000           DRN_0      
    508     (1,508)               0.0000000           DRN_0      
    509     (1,509)               0.0000000           DRN_0      
    510     (1,510)               0.0000000           DRN_0      
    511     (1,511)               0.0000000           DRN_0      
    512     (1,512)               0.0000000           DRN_0      
    513     (1,513)               0.0000000           DRN_0      
    514     (1,514)               0.0000000           DRN_0      
    515     (1,515)               0.0000000           DRN_0      
    516     (1,516)               0.0000000           DRN_0      
    517     (1,517)               0.0000000           DRN_0      
    518     (1,518)               0.0000000           DRN_0      
    519     (1,519)               0.0000000           DRN_0      
    520     (1,520)               0.0000000           DRN_0      
    521     (1,521)               0.0000000           DRN_0      
    522     (1,522)               0.0000000           DRN_0      
    523     (1,523)               0.0000000           DRN_0      
    524     (1,524)               0.0000000           DRN_0      
    525     (1,525)               0.0000000           DRN_0      
    526     (1,526)               0.0000000           DRN_0      
    527     (1,527)               0.0000000           DRN_0      
    528     (1,528)               0.0000000           DRN_0      
    529     (1,529)               0.0000000           DRN_0      
    530     (1,530)               0.0000000           DRN_0      
    531     (1,531)               0.0000000           DRN_0      
    532     (1,532)               0.0000000           DRN_0      
    533     (1,533)               0.0000000           DRN_0      
    534     (1,534)               0.0000000           DRN_0      
    535     (1,535)               0.0000000           DRN_0      
    536     (1,536)               0.0000000           DRN_0      
    537     (1,537)               0.0000000           DRN_0      
    538     (1,538)               0.0000000           DRN_0      
    539     (1,539)               0.0000000           DRN_0      
    540     (1,540)               0.0000000           DRN_0      
    541     (1,541)               0.0000000           DRN_0      
    542     (1,542)               0.0000000           DRN_0      
    543     (1,543)               0.0000000           DRN_0      
    544     (1,544)               0.0000000           DRN_0      
    545     (1,545)               0.0000000           DRN_0      
    546     (1,546)               0.0000000           DRN_0      
    547     (1,547)               0.0000000           DRN_0      
    548     (1,548)               0.0000000           DRN_0      
    549     (1,549)               0.0000000           DRN_0      
    550     (1,550)               0.0000000           DRN_0      
    551     (1,551)               0.0000000           DRN_0      
    552     (1,552)               0.0000000           DRN_0      
    553     (1,553)               0.0000000           DRN_0      
    554     (1,554)               0.0000000           DRN_0      
    555     (1,555)               0.0000000           DRN_0      
    556     (1,556)               0.0000000           DRN_0      
    557     (1,557)               0.0000000           DRN_0      
    558     (1,558)               0.0000000           DRN_0      
    559     (1,559)               0.0000000           DRN_0      
    560     (1,560)               0.0000000           DRN_0      
    561     (1,561)               0.0000000           DRN_0      
    562     (1,562)               0.0000000           DRN_0      
    563     (1,563)               0.0000000           DRN_0      
    564     (1,564)               0.0000000           DRN_0      
    565     (1,565)               0.0000000           DRN_0      
    566     (1,566)               0.0000000           DRN_0      
    567     (1,567)               0.0000000           DRN_0      
    568     (1,568)               0.0000000           DRN_0      
    569     (1,569)               0.0000000           DRN_0      
    570     (1,570)               0.0000000           DRN_0      
    571     (1,571)               0.0000000           DRN_0      
    572     (1,572)               0.0000000           DRN_0      
    573     (1,573)               0.0000000           DRN_0      
    574     (1,574)               0.0000000           DRN_0      
    575     (1,575)               0.0000000           DRN_0      
    576     (1,576)               0.0000000           DRN_0      
    577     (1,577)               0.0000000           DRN_0      
    578     (1,578)               0.0000000           DRN_0      
    579     (1,579)               0.0000000           DRN_0      
    580     (1,580)               0.0000000           DRN_0      
    581     (1,581)               0.0000000           DRN_0      
    582     (1,582)               0.0000000           DRN_0      
    583     (1,583)               0.0000000           DRN_0      
    584     (1,584)               0.0000000           DRN_0      
    585     (1,585)               0.0000000           DRN_0      
    586     (1,586)               0.0000000           DRN_0      
    587     (1,587)               0.0000000           DRN_0      
    588     (1,588)               0.0000000           DRN_0      
    589     (1,589)               0.0000000           DRN_0      
    590     (1,590)               0.0000000           DRN_0      
    591     (1,591)               0.0000000           DRN_0      
    592     (1,592)               0.0000000           DRN_0      
    593     (1,593)               0.0000000           DRN_0      
    594     (1,594)               0.0000000           DRN_0      
    595     (1,595)               0.0000000           DRN_0      
    596     (1,596)               0.0000000           DRN_0      
    597     (1,597)               0.0000000           DRN_0      
    598     (1,598)               0.0000000           DRN_0      
    599     (1,599)               0.0000000           DRN_0      
    600     (1,600)               0.0000000           DRN_0      
    601     (1,601)               0.0000000           DRN_0      
    602     (1,602)               0.0000000           DRN_0      
    603     (1,603)               0.0000000           DRN_0      
    604     (1,604)               0.0000000           DRN_0      
    605     (1,605)               0.0000000           DRN_0      
    606     (1,606)               0.0000000           DRN_0      
    607     (1,607)               0.0000000           DRN_0      
    608     (1,608)               0.0000000           DRN_0      
    609     (1,609)               0.0000000           DRN_0      
    610     (1,610)               0.0000000           DRN_0      
    611     (1,611)               0.0000000           DRN_0      
    612     (1,612)               0.0000000           DRN_0      
    613     (1,613)               0.0000000           DRN_0      
    614     (1,614)               0.0000000           DRN_0      
    615     (1,615)               0.0000000           DRN_0      
    616     (1,616)               0.0000000           DRN_0      
    617     (1,617)               0.0000000           DRN_0      
    618     (1,618)               0.0000000           DRN_0      
    619     (1,619)               0.0000000           DRN_0      
    620     (1,620)               0.0000000           DRN_0      
    621     (1,621)               0.0000000           DRN_0      
    622     (1,622)               0.0000000           DRN_0      
    623     (1,623)               0.0000000           DRN_0      
    624     (1,624)               0.0000000           DRN_0      
    625     (1,625)               0.0000000           DRN_0      
    626     (1,626)               0.0000000           DRN_0      
    627     (1,627)               0.0000000           DRN_0      
    628     (1,628)               0.0000000           DRN_0      
    629     (1,629)               0.0000000           DRN_0      
    630     (1,630)               0.0000000           DRN_0      
    631     (1,631)               0.0000000           DRN_0      
    632     (1,632)               0.0000000           DRN_0      
    633     (1,633)               0.0000000           DRN_0      
    634     (1,634)               0.0000000           DRN_0      
    635     (1,635)               0.0000000           DRN_0      
    636     (1,636)               0.0000000           DRN_0      
    637     (1,637)               0.0000000           DRN_0      
    638     (1,638)               0.0000000           DRN_0      
    639     (1,639)               0.0000000           DRN_0      
    640     (1,640)               0.0000000           DRN_0      
    641     (1,641)               0.0000000           DRN_0      
    642     (1,642)               0.0000000           DRN_0      
    643     (1,643)               0.0000000           DRN_0      
    644     (1,644)               0.0000000           DRN_0      
    645     (1,645)               0.0000000           DRN_0      
    646     (1,646)               0.0000000           DRN_0      
    647     (1,647)               0.0000000           DRN_0      
    648     (1,648)               0.0000000           DRN_0      
    649     (1,649)               0.0000000           DRN_0      
    650     (1,650)               0.0000000           DRN_0      
    651     (1,651)               0.0000000           DRN_0      
    652     (1,652)               0.0000000           DRN_0      
    653     (1,653)               0.0000000           DRN_0      
    654     (1,654)               0.0000000           DRN_0      
    655     (1,655)               0.0000000           DRN_0      
    656     (1,656)               0.0000000           DRN_0      
    657     (1,657)               0.0000000           DRN_0      
    658     (1,658)               0.0000000           DRN_0      
    659     (1,659)               0.0000000           DRN_0      
    660     (1,660)               0.0000000           DRN_0      
    661     (1,661)               0.0000000           DRN_0      
    662     (1,662)               0.0000000           DRN_0      
    663     (1,663)               0.0000000           DRN_0      
    664     (1,664)               0.0000000           DRN_0      
    665     (1,665)               0.0000000           DRN_0      
    666     (1,666)               0.0000000           DRN_0      
    667     (1,667)               0.0000000           DRN_0      
    668     (1,668)               0.0000000           DRN_0      
    669     (1,669)               0.0000000           DRN_0      
    670     (1,670)               0.0000000           DRN_0      
    671     (1,671)               0.0000000           DRN_0      
    672     (1,672)               0.0000000           DRN_0      
    673     (1,673)               0.0000000           DRN_0      
    674     (1,674)               0.0000000           DRN_0      
    675     (1,675)               0.0000000           DRN_0      
    676     (1,676)               0.0000000           DRN_0      
    677     (1,677)               0.0000000           DRN_0      
    678     (1,678)               0.0000000           DRN_0      
    679     (1,679)               0.0000000           DRN_0      
    680     (1,680)               0.0000000           DRN_0      
    681     (1,681)               0.0000000           DRN_0      
    682     (1,682)               0.0000000           DRN_0      
    683     (1,683)               0.0000000           DRN_0      
    684     (1,684)               0.0000000           DRN_0      
    685     (1,685)               0.0000000           DRN_0      
    686     (1,686)               0.0000000           DRN_0      
    687     (1,687)               0.0000000           DRN_0      
    688     (1,688)               0.0000000           DRN_0      
    689     (1,689)               0.0000000           DRN_0      
    690     (1,690)               0.0000000           DRN_0      
    691     (1,691)               0.0000000           DRN_0      
    692     (1,692)               0.0000000           DRN_0      
    693     (1,693)               0.0000000           DRN_0      
    694     (1,694)               0.0000000           DRN_0      
    695     (1,695)               0.0000000           DRN_0      
    696     (1,696)               0.0000000           DRN_0      
    697     (1,697)               0.0000000           DRN_0      
    698     (1,698)               0.0000000           DRN_0      
    699     (1,699)               0.0000000           DRN_0      
    700     (1,700)               0.0000000           DRN_0      
    701     (1,701)               0.0000000           DRN_0      
    702     (1,702)               0.0000000           DRN_0      
    703     (1,703)               0.0000000           DRN_0      
    704     (1,704)               0.0000000           DRN_0      
    705     (1,705)               0.0000000           DRN_0      
    706     (1,706)               0.0000000           DRN_0      
    707     (1,707)               0.0000000           DRN_0      
    708     (1,708)               0.0000000           DRN_0      
    709     (1,709)               0.0000000           DRN_0      
    710     (1,710)               0.0000000           DRN_0      
    711     (1,711)               0.0000000           DRN_0      
    712     (1,712)               0.0000000           DRN_0      
    713     (1,713)               0.0000000           DRN_0      
    714     (1,714)               0.0000000           DRN_0      
    715     (1,715)               0.0000000           DRN_0      
    716     (1,716)               0.0000000           DRN_0      
    717     (1,717)               0.0000000           DRN_0      
    718     (1,718)               0.0000000           DRN_0      
    719     (1,719)               0.0000000           DRN_0      
    720     (1,720)               0.0000000           DRN_0      
    721     (1,721)               0.0000000           DRN_0      
    722     (1,722)               0.0000000           DRN_0      
    723     (1,723)               0.0000000           DRN_0      
    724     (1,724)               0.0000000           DRN_0      
    725     (1,725)               0.0000000           DRN_0      
    726     (1,726)               0.0000000           DRN_0      
    727     (1,727)               0.0000000           DRN_0      
    728     (1,728)               0.0000000           DRN_0      
    729     (1,729)               0.0000000           DRN_0      
    730     (1,730)               0.0000000           DRN_0      
    731     (1,731)               0.0000000           DRN_0      
    732     (1,732)               0.0000000           DRN_0      
    733     (1,733)               0.0000000           DRN_0      
[...]
        -5.582969E-14   -1.655544E-13   -5.740694E-14    3.771169E-12    3.638785E-11    2.633541E-10    1.744130E-09    8.195974E-09    3.349492E-08    1.261236E-07
         4.445247E-07    1.477332E-06    4.653252E-06    1.396135E-05    4.010830E-05    1.087825E-04    2.824270E-04    7.033114E-04    1.662708E-03    3.713840E-03
         7.927377E-03    1.631996E-02    3.200195E-02    6.005143E-02    0.108271        0.187641        0.311072        0.495053        0.760729         1.12553    
          1.60333         2.19658         2.89568         3.67212         4.48175         5.26709         5.96457         6.52798         6.96260         7.21224    
          7.31439         7.32010         7.13375         6.67733         4.96397         2.64933         1.69261        0.922318        0.463800        0.232865    
         0.116974        5.478190E-02    2.927018E-02    1.800623E-02    1.068330E-02    5.920588E-03    3.069521E-03    1.493570E-03    6.861293E-04    2.970619E-04
         1.184094E-04    5.900643E-05    3.651771E-05    7.000824E-05    4.567882E-05    3.899238E-05    4.683196E-05    3.773617E-05    4.534548E-05    5.677037E-05
         6.826047E-05    7.741432E-05    8.396826E-05    8.814417E-05    9.009840E-05   -2.840373E-23   -2.415451E-22   -8.895834E-22   -1.584592E-21    5.756952E-21
         7.523732E-20    4.545465E-19    1.926504E-18    5.328278E-18    4.556142E-19   -1.115102E-16   -9.034350E-16   -4.883055E-15   -2.007738E-14   -5.679730E-14
        -1.376956E-14    1.293453E-12    1.228175E-11    8.267511E-11    4.895528E-10    2.775398E-09    1.258958E-08    4.885173E-08    1.738656E-07    5.835353E-07
         1.860091E-06    5.644467E-06    1.638128E-05    4.557004E-05    1.196370E-04    2.992875E-04    7.230567E-04    1.665594E-03    3.657367E-03    7.632427E-03
         1.532187E-02    2.955807E-02    5.443497E-02    9.654852E-02    0.164783        0.270169        0.423782        0.641740        0.937570         1.31999    
          1.79123         2.33991         2.94422         3.56918         4.17219         4.71323         5.16435         5.51661         5.76732         5.90024    
          5.93691         5.92251         5.78038         5.06457         3.31840         2.00207         1.09361        0.571292        0.297411        0.150476    
         6.823009E-02    3.524833E-02    2.042699E-02    1.186757E-02    6.602521E-03    3.484057E-03    1.739840E-03    8.244538E-04    3.718706E-04    1.607033E-04
         7.313970E-05    4.319432E-05    4.032951E-05    5.215547E-05    3.674328E-05    5.224433E-05    6.481459E-05    7.415307E-05    8.077974E-05    8.483364E-05
         8.674323E-05   -1.338134E-22   -3.473326E-22   -3.495990E-22    3.719575E-21    3.327446E-20    1.803267E-19    7.176450E-19    1.858397E-18   -5.100842E-19
        -4.398409E-17   -3.443432E-16   -1.853705E-15   -7.711670E-15   -2.310015E-14   -1.951395E-14    3.825799E-13    3.976258E-12    2.737748E-11    1.574354E-10
         8.088508E-10    3.973368E-09    1.840709E-08    6.817743E-08    2.311700E-07    7.418105E-07    2.273936E-06    6.666635E-06    1.871991E-05    5.040943E-05
         1.287889E-04    3.128676E-04    7.337413E-04    1.648004E-03    3.539718E-03    7.274906E-03    1.430072E-02    2.701864E-02    4.895750E-02    8.548503E-02
         0.143867        0.233031        0.361269        0.539751        0.779212         1.08532         1.45832         1.89118         2.36505         2.85463    
          3.33316         3.77470         4.16025         4.48259         4.74436         4.94889         5.11493         5.24656         5.25769         4.84325    
          3.70537         2.43773         1.42792        0.786487        0.427511        0.222569        9.361212E-02    4.672960E-02    2.574603E-02    1.464088E-02
         8.194289E-03    4.408100E-03    2.270163E-03    1.119124E-03    5.301427E-04    2.446093E-04    1.114519E-04    5.994069E-05    3.701429E-05    7.437280E-05
         4.151058E-05    5.265395E-05    6.378057E-05    6.865902E-05    7.573932E-05    7.789999E-05    6.247072E-05    6.240160E-05    7.474944E-05    7.750086E-05
        -1.296174E-22    3.985216E-23    2.237024E-21    1.545153E-20    7.235657E-20    2.691681E-19    6.504514E-19   -4.765995E-19   -1.777977E-17   -1.348382E-16
        -7.216391E-16   -3.038380E-15   -9.441956E-15   -1.085725E-14    1.312930E-13    1.459560E-12    1.018690E-11    5.821667E-11    2.932861E-10    1.304183E-09
         5.474954E-09    2.462049E-08    8.948557E-08    2.943131E-07    9.132451E-07    2.705724E-06    7.679848E-06    2.090700E-05    5.448602E-05    1.352116E-04
         3.216288E-04    7.366018E-04    1.611438E-03    3.384000E-03    6.829437E-03    1.323171E-02    2.455505E-02    4.378925E-02    7.541228E-02    0.125042    
         0.199841        0.306998        0.453141        0.646073        0.891068         1.18811         1.53222         1.90922         2.30104         2.69093    
          3.06112         3.39981         3.70280         3.97469         4.22254         4.45147         4.65348         4.75372         4.55095         3.83563    
          2.80843         1.82214         1.09444        0.632093        0.334737        0.137075        6.705025E-02    3.613291E-02    2.027925E-02    1.144308E-02
         6.297009E-03    3.343268E-03    1.722725E-03    8.587618E-04    4.146130E-04    1.908043E-04    9.285298E-05    5.353760E-05    1.296166E-04    8.462138E-05
         5.827986E-05    5.949351E-05    6.920383E-05    5.997016E-05    6.138613E-05    5.979595E-05    5.692186E-05    5.119462E-05    5.142448E-05    5.027224E-05
         4.865313E-05    5.026801E-05    4.635218E-05    4.511068E-05    4.816152E-05    4.694554E-05    4.599191E-05    4.940047E-05    4.570919E-05    3.502870E-05
         1.659914E-05    4.218615E-06    1.884475E-05    4.344785E-06   -3.144548E-23    1.170087E-21    7.616628E-21    3.174310E-20    1.014103E-19    2.233974E-19
        -3.099044E-19   -7.336830E-18   -5.358133E-17   -2.833864E-16   -1.184854E-15   -3.675008E-15   -4.483067E-15    4.749781E-14    5.354731E-13    3.699010E-12
         2.102214E-11    1.040908E-10    4.654786E-10    1.910059E-09    7.527180E-09    3.095919E-08    1.122522E-07    3.624254E-07    1.092723E-06    3.137775E-06
         8.643866E-06    2.291990E-05    5.824911E-05    1.402867E-04    3.237159E-04    7.264237E-04    1.556792E-03    3.201287E-03    6.340306E-03    1.210075E-02
         2.217849E-02    3.893191E-02    6.613099E-02    0.108362        0.170807        0.259605        0.379514        0.536085        0.733584        0.970920    
          1.24642         1.55062         1.86926         2.19171         2.50753         2.80930         3.09622         3.37132         3.63697         3.89276    
          4.13120         4.29205         4.23559         3.80768         3.04999         2.19064         1.45201        0.897588        0.462444        0.205751    
         0.102682        5.584526E-02    3.134950E-02    1.778342E-02    9.995489E-03    5.435069E-03    2.919100E-03    1.524408E-03    7.552917E-04    3.546191E-04
         1.706359E-04    9.443001E-05    6.747992E-05    5.624156E-05    4.957431E-05    3.600765E-05    8.672306E-06    3.479987E-06    1.581714E-05    8.548068E-06
         7.248871E-23    3.084815E-21    1.531269E-20    4.879349E-20    8.987448E-20   -1.527617E-19   -3.006805E-18   -2.132920E-17   -1.110724E-16   -4.603890E-16
        -1.422118E-15   -1.806002E-15    1.679969E-14    1.910070E-13    1.317950E-12    7.419402E-12    3.696364E-11    1.666478E-10    6.920481E-10    2.695784E-09
         9.953147E-09    3.698373E-08    1.380412E-07    4.364924E-07    1.275862E-06    3.553761E-06    9.510469E-06    2.456354E-05    6.101307E-05    1.440045E-04
         3.233547E-04    7.069519E-04    1.486352E-03    3.001422E-03    5.841026E-03    1.096239E-02    1.984322E-02    3.448755E-02    5.773235E-02    9.346260E-02
         0.145747        0.219238        0.317877        0.445330        0.605258        0.797250         1.02016         1.26772         1.53012         1.80026    
          2.07183         2.34078         2.60840         2.87585         3.14415         3.41169         3.66691         3.86656         3.91107         3.68440    
          3.16546         2.47709         1.79992         1.18986        0.600900        0.301986        0.160750        9.031044E-02    5.181176E-02    2.974695E-02
         1.697076E-02    9.496369E-03    5.266134E-03    2.820084E-03    1.416457E-03    6.584980E-04    3.022681E-04    1.496848E-04    8.979266E-05    6.554868E-05
         5.204973E-05    3.581734E-05    1.797069E-05    7.412717E-22    5.740329E-21    1.942766E-20    3.262011E-20   -9.264775E-20   -1.242514E-18   -8.532202E-18
        -4.421743E-17   -1.803050E-16   -5.507222E-16   -7.175345E-16    6.113668E-15    6.922120E-14    4.748116E-13    2.669901E-12    1.339816E-11    6.163466E-11
         2.619491E-10    1.031437E-09    3.813111E-09    1.299992E-08    4.267381E-08    1.564233E-07    5.043344E-07    1.452705E-06    3.939761E-06    1.026816E-05
         2.585774E-05    6.272767E-05    1.451311E-04    3.195650E-04    6.830772E-04    1.407859E-03    2.792391E-03    5.344630E-03    9.874566E-03    1.762106E-02
         3.031607E-02    5.018227E-02    8.027617E-02    0.124065        0.185058        0.266251        0.370695        0.501205        0.657328        0.838518    
          1.04243         1.26129         1.48981         1.72423         1.96228         2.20521         2.45673         2.71851         2.98672         3.24696    
          3.46949         3.58292         3.49985         3.17866         2.66734         2.09052         1.44404        0.781247        0.437472        0.250341    
         0.146046        8.650690E-02    5.102270E-02    2.963486E-02    1.700940E-02    9.676341E-03    5.256112E-03    2.607709E-03    1.175579E-03    5.105369E-04
         2.305054E-04    1.187131E-04    7.559298E-05    5.449439E-05    3.627238E-05    2.336050E-05    3.579050E-21    1.116996E-20    2.162571E-20   -3.197060E-20
        -6.013376E-19   -3.764872E-18   -1.834476E-17   -7.349745E-17   -2.149188E-16   -2.617799E-16    2.325677E-15    2.587268E-14    1.726559E-13    9.592824E-13
         4.763406E-12    2.220333E-11    9.694555E-11    3.891528E-10    1.442922E-09    4.994440E-09    1.620833E-08    5.074607E-08    1.692523E-07    5.691412E-07
         1.623642E-06    4.297657E-06    1.091291E-05    2.678637E-05    6.353371E-05    1.442558E-04    3.118256E-04    6.542631E-04    1.329397E-03    2.585799E-03
         4.866448E-03    8.854641E-03    1.559761E-02    2.653265E-02    4.350283E-02    6.882289E-02    0.105492        0.156231        0.223111        0.308849    
         0.416736        0.545960        0.695141        0.863518         1.04807         1.24316         1.44668         1.65539         1.87248         2.10267    
          2.34938         2.60701         2.86360         3.09544         3.25361         3.27249         3.10664         2.75948         2.28564         1.64947    
          1.02215        0.623486        0.379096        0.231115        0.141490        8.596950E-02    5.141783E-02    3.019556E-02    1.746853E-02    9.473363E-03
         4.549599E-03    1.943255E-03    7.915647E-04    3.276219E-04    1.491208E-04    8.396406E-05    5.442803E-05    2.831192E-05    4.541556E-06    3.266496E-22
        -7.544330E-21   -8.044462E-20   -5.124593E-19   -2.564490E-18   -1.003374E-17   -3.325266E-17   -8.868060E-17   -6.633129E-17    1.002451E-15    9.827812E-15
         6.448122E-14    3.449399E-13    1.690636E-12    7.672897E-12    3.458984E-11    1.471512E-10    5.569001E-10    1.952040E-09    6.543704E-09    2.054223E-08
         6.071734E-08    1.774943E-07    5.915471E-07    1.736178E-06    4.578433E-06    1.141607E-05    2.735107E-05    6.370283E-05    1.420605E-04    3.008799E-04
         6.178136E-04    1.252390E-03    2.393388E-03    4.417280E-03    7.904107E-03    1.378107E-02    2.318947E-02    3.761611E-02    5.889007E-02    8.964201E-02
         0.132084        0.188174        0.259042        0.348619        0.456051        0.579552        0.719144        0.875788         1.04312         1.22058    
          1.40375         1.59488         1.80195         2.02616         2.26363         2.50507         2.73746         2.92291         3.01266         2.96293    
          2.74722         2.35000         1.81670         1.26710        0.840211        0.545320        0.350184        0.223044        0.139011        8.544315E-02
         5.153974E-02    3.040882E-02    1.590943E-02    7.203811E-03    2.885446E-03    1.106598E-03    4.187014E-04    1.719952E-04    8.845506E-05    5.204041E-05
         2.408139E-05    4.908444E-06    2.092583E-20    1.540685E-20   -6.853005E-20   -5.586656E-19   -2.667646E-18   -9.029421E-18   -1.473258E-17    7.008283E-17
         7.834615E-16    4.182816E-15    2.407853E-14    1.305207E-13    6.147288E-13    2.823721E-12    1.165761E-11    5.348223E-11    2.238924E-10    7.734721E-10
         2.529291E-09    8.318947E-09    2.462486E-08    6.917697E-08    1.928633E-07    6.036034E-07    1.821816E-06    4.792915E-06    1.172304E-05    2.751800E-05
         6.378779E-05    1.393301E-04    2.881852E-04    5.754359E-04    1.169559E-03    2.217692E-03    3.994868E-03    7.025594E-03    1.223416E-02    2.031120E-02
         3.246624E-02    5.029370E-02    7.655045E-02    0.111833        0.158148        0.217103        0.293340        0.383752        0.486127        0.601390    
         0.736282        0.878807         1.03627         1.19565         1.35892         1.54284         1.74196         1.95276         2.17066         2.39564    
          2.59304         2.72759         2.75725         2.63971         2.34217         1.93545         1.48325         1.05902        0.734801        0.500312    
         0.334812        0.212047        0.132753        8.215446E-02    4.932488E-02    2.363972E-02    9.903849E-03    3.766731E-03    1.383100E-03    4.708299E-04
         1.806459E-04    8.964431E-05    4.931176E-05    2.020716E-05    3.923190E-06   -4.775468E-20   -3.137994E-19   -1.323902E-18   -4.515756E-18   -1.478916E-17
        -3.864662E-17   -5.785457E-17   -1.357377E-17    6.800307E-16    1.712466E-15    3.078926E-14    1.985001E-13    9.927972E-13    4.696326E-12    1.534818E-11
         7.816024E-11    3.104199E-10    9.112156E-10    2.935228E-09    1.043702E-08    2.889628E-08    7.913471E-08    2.116286E-07    6.300770E-07    1.810310E-06
         4.832284E-06    1.178435E-05    2.716416E-05    6.476139E-05    1.375227E-04    2.707754E-04    5.303987E-04    1.106926E-03    2.074365E-03    3.599833E-03
         6.198176E-03    1.101919E-02    1.800775E-02    2.812783E-02    4.293147E-02    6.595104E-02    9.563017E-02    0.133576        0.181546        0.246953    
         0.323165        0.409474        0.506063        0.626779        0.746091        0.876906         1.01103         1.13932         1.29312         1.47001    
          1.65956         1.84703         2.04685         2.24353         2.40263         2.47895         2.43391         2.28290         2.00031         1.64246    
          1.24473        0.917539        0.661741        0.462587        0.293557        0.186559        0.118469        7.075445E-02    2.858369E-02    1.120883E-02
         4.278307E-03    1.528919E-03    4.449523E-04    1.819583E-04    8.894646E-05    4.730546E-05    1.650746E-05    3.352205E-06   -6.591140E-20   -1.721678E-19
         4.003652E-19    6.703285E-18    3.050962E-17    1.724023E-16    4.943165E-16    2.274092E-15    8.710704E-15    1.557676E-14    1.776341E-13    7.868444E-13
         3.281827E-12    1.207918E-11    1.682011E-11    1.257077E-10    4.769681E-10    1.240815E-09    5.410481E-09    2.153270E-08    4.554442E-08    1.263960E-07
         2.852444E-07    9.376004E-07    2.090530E-06    5.726738E-06    1.479824E-05    3.049540E-05    8.066813E-05    1.564305E-04    2.651021E-04    5.641215E-04
         1.318893E-03    2.155623E-03    3.398692E-03    6.055156E-03    1.176927E-02    1.740766E-02    2.616094E-02    3.944368E-02    6.094788E-02    8.562138E-02
         0.116754        0.158222        0.206927        0.274167        0.350871        0.441741        0.535062        0.594174        0.400329        0.621723    
         0.780296        0.754995         1.01709         1.26344         1.43513         1.33003         1.63351         1.85676         1.90000         1.46252    
          1.72600         1.77705         1.61490         1.27389         1.01671        0.775996        0.543029        0.327331        0.222372        0.142848    
         8.299876E-02    2.550135E-02    9.522211E-03    4.367981E-03    1.344623E-03    3.339594E-04    2.133112E-04    7.809122E-05    4.736326E-05    1.344016E-05
         5.354163E-06

 CONCENTRATION WILL BE SAVED ON UNIT 1046 AT END OF TIME STEP    4, STRESS PERIOD    1


  MASS BUDGET FOR ENTIRE MODEL AT END OF TIME STEP    4, STRESS PERIOD   1
  ---------------------------------------------------------------------------------------------------

     CUMULATIVE MASS      M       RATES FOR THIS TIME STEP      M/T          PACKAGE NAME    
     ------------------                 ------------------------                     ----------------

           IN:                                      IN:
           ---                                      ---
     STORAGE-AQUEOUS =       32968.8290       STORAGE-AQUEOUS =       8.8394E-11     MST             
               WEL_0 =       1.3478E-05                 WEL_0 =       8.8870E-15     SSM             
               DRN_0 =           0.0000                 DRN_0 =           0.0000     SSM             
               RIV_0 =           0.0000                 RIV_0 =           0.0000     SSM             
               GHB_0 =       1.2901E-12                 GHB_0 =       9.0042E-22     SSM             
                 RCH =           0.0000                   RCH =           0.0000     SSM             
                 CNC =  8032258222.9852                   CNC =           5.0878     CNC             

            TOTAL IN =  8032291191.8143              TOTAL IN =           5.0878

          OUT:                                     OUT:
          ----                                     ----
     STORAGE-AQUEOUS =   659694359.3665       STORAGE-AQUEOUS =       2.4744E-03     MST             
               WEL_0 =     3041464.1822                 WEL_0 =       1.9734E-03     SSM             
               DRN_0 =  7014921726.8717                 DRN_0 =           4.8364     SSM             
               RIV_0 =          18.4958                 RIV_0 =       1.3395E-08     SSM             
               GHB_0 =   203864571.2661                 GHB_0 =           0.1505     SSM             
                 RCH =           0.0000                   RCH =           0.0000     SSM             
                 CNC =   150769029.3690                   CNC =       9.6423E-02     CNC             

           TOTAL OUT =  8032291169.5515             TOTAL OUT =           5.0878

            IN - OUT =          22.2628              IN - OUT =       3.4569E-08

 PERCENT DISCREPANCY =           0.00     PERCENT DISCREPANCY =           0.00




         TIME SUMMARY AT END OF TIME STEP    4 IN STRESS PERIOD    1
                    SECONDS     MINUTES      HOURS       DAYS        YEARS
                    -----------------------------------------------------------
   TIME STEP LENGTH 4.52213E+08 7.53688E+06 1.25615E+05  5233.9      14.330    
 STRESS PERIOD TIME 1.57680E+09 2.62800E+07 4.38000E+05  18250.      49.966    
         TOTAL TIME 1.57680E+09 2.62800E+07 4.38000E+05  18250.      49.966    


end timestep

