                                   MODFLOW 6
                U.S. GEOLOGICAL SURVEY MODULAR HYDROLOGIC MODEL
                          GROUNDWATER FLOW MODEL (GWF)
                            VERSION 6.2.1 02/18/2021

   MODFLOW 6 compiled Feb 18 2021 08:24:05 with IFORT compiler (ver. 19.10.2)

This software has been approved for release by the U.S. Geological 
Survey (USGS). Although the software has been subjected to rigorous 
review, the USGS reserves the right to update the software as needed 
pursuant to further analysis and review. No warranty, expressed or 
implied, is made by the USGS or the U.S. Government as to the 
functionality of the software and related material nor shall the 
fact of release constitute any such warranty. Furthermore, the 
software is released on condition that neither the USGS nor the U.S. 
Government shall be held liable for any damages resulting from its 
authorized or unauthorized use. Also refer to the USGS Water 
Resources Software User Rights Notice for complete use, copyright, 
and distribution information.


System command used to initiate simulation:
..\bin\mf6.exe

MODFLOW was compiled using uniform precision.

Real Variables
  KIND: 8
  TINY (smallest non-zero value):    2.225074-308
  HUGE (largest value):    1.797693+308
  PRECISION: 15
  BIT SIZE: 64

Integer Variables
  KIND: 4
  HUGE (largest value): 2147483647
  BIT SIZE: 32

Long Integer Variables
  KIND: 8
  HUGE (largest value): 9223372036854775807
  BIT SIZE: 64

Logical Variables
  KIND: 4
  BIT SIZE: 32
 

 OPENED symp06.dis
 FILE TYPE:DIS6                   UNIT 1005   STATUS:OLD                 
 FORMAT:FORMATTED              ACCESS:SEQUENTIAL          
 ACTION:READ                


 OPENED symp06.ic
 FILE TYPE:IC6                    UNIT 1006   STATUS:OLD                 
 FORMAT:FORMATTED              ACCESS:SEQUENTIAL          
 ACTION:READ                


 OPENED symp06.npf
 FILE TYPE:NPF6                   UNIT 1007   STATUS:OLD                 
 FORMAT:FORMATTED              ACCESS:SEQUENTIAL          
 ACTION:READ                


 OPENED symp06.rcha
 FILE TYPE:RCH6                   UNIT 1008   STATUS:OLD                 
 FORMAT:FORMATTED              ACCESS:SEQUENTIAL          
 ACTION:READ                


 OPENED symp06.wel
 FILE TYPE:WEL6                   UNIT 1009   STATUS:OLD                 
 FORMAT:FORMATTED              ACCESS:SEQUENTIAL          
 ACTION:READ                


 OPENED symp06.oc
 FILE TYPE:OC6                    UNIT 1010   STATUS:OLD                 
 FORMAT:FORMATTED              ACCESS:SEQUENTIAL          
 ACTION:READ                


 OPENED symp06.sto
 FILE TYPE:STO6                   UNIT 1011   STATUS:OLD                 
 FORMAT:FORMATTED              ACCESS:SEQUENTIAL          
 ACTION:READ                


 OPENED symp06.riv
 FILE TYPE:RIV6                   UNIT 1012   STATUS:OLD                 
 FORMAT:FORMATTED              ACCESS:SEQUENTIAL          
 ACTION:READ                


 OPENED symp06.obs
 FILE TYPE:OBS6                   UNIT 1013   STATUS:OLD                 
 FORMAT:FORMATTED              ACCESS:SEQUENTIAL          
 ACTION:READ                

 NAMEFILE OPTIONS:
    PACKAGE FLOWS WILL BE PRINTED FOR ALL MODEL PACKAGES
    FLOWS WILL BE SAVED TO BUDGET FILE SPECIFIED IN OUTPUT CONTROL

 DIS -- STRUCTURED GRID DISCRETIZATION PACKAGE, VERSION 2 : 3/27/2014 - INPUT READ FROM UNIT 1005


 # File generated by Flopy version 3.3.4 on 09/05/2021 at 19:37:07.
 PROCESSING DISCRETIZATION OPTIONS
 END OF DISCRETIZATION OPTIONS
 MODEL LENGTH UNIT IS UNDEFINED
 PROCESSING DISCRETIZATION DIMENSIONS
    NLAY =       3
    NROW =      15
    NCOL =      10
 END OF DISCRETIZATION DIMENSIONS
 PROCESSING GRIDDATA

                     DELR =   100.0000    

                     DELC =   100.0000    

 TOP ELEVATION OF LAYER 1 =   50.00000    

   MODEL LAYER BOTTOM EL. =   40.00000     FOR LAYER 1

   MODEL LAYER BOTTOM EL. =   35.00000     FOR LAYER 2

   MODEL LAYER BOTTOM EL. =   0.000000     FOR LAYER 3
 END PROCESSING GRIDDATA

 NPF -- NODE PROPERTY FLOW PACKAGE, VERSION 1, 3/30/2015 INPUT READ FROM UNIT 1007


 # File generated by Flopy version 3.3.4 on 09/05/2021 at 19:37:07.
 PROCESSING NPF OPTIONS
    CELL-BY-CELL FLOW INFORMATION WILL BE SAVED TO BINARY FILE WHENEVER ICBCFL IS NOT ZERO.
    SPECIFIC DISCHARGE WILL BE CALCULATED AT CELL CENTERS AND WRITTEN TO DATA-SPDIS IN BUDGET FILE WHEN REQUESTED.
 END OF NPF OPTIONS

 WEL   -- WEL PACKAGE, VERSION 8, 2/22/2014 INPUT READ FROM UNIT 1009
 # File generated by Flopy version 3.3.4 on 09/05/2021 at 19:37:07.

 PROCESSING WEL OPTIONS
    LISTS OF WEL CELLS WILL BE PRINTED.
    WEL FLOWS WILL BE PRINTED TO LISTING FILE.
    FLOWS WILL BE SAVED TO BUDGET FILE SPECIFIED IN OUTPUT CONTROL
 END OF WEL OPTIONS

 PROCESSING WEL DIMENSIONS
    MAXBOUND =       2
 END OF WEL DIMENSIONS

 RIV   -- RIV PACKAGE, VERSION 8, 2/22/2014 INPUT READ FROM UNIT 1012
 # File generated by Flopy version 3.3.4 on 09/05/2021 at 19:37:07.

 PROCESSING RIV OPTIONS
    RIV BOUNDARIES HAVE NAMES IN LAST COLUMN.

 OPENED symp06.riv.obs
 FILE TYPE:OBS   UNIT 1015   STATUS:OLD                 
 FORMAT:FORMATTED              ACCESS:SEQUENTIAL          
 ACTION:READ                

 END OF RIV OPTIONS

 PROCESSING RIV DIMENSIONS
    MAXBOUND =      10
 END OF RIV DIMENSIONS

 RCH   -- RCH PACKAGE, VERSION 8, 2/22/2014 INPUT READ FROM UNIT 1008
 # File generated by Flopy version 3.3.4 on 09/05/2021 at 19:37:07.

 PROCESSING RCH OPTIONS
    RECHARGE INPUT WILL BE READ AS ARRAY(S).
 END OF RCH OPTIONS

 IC -- INITIAL CONDITIONS PACKAGE, VERSION 8, 3/28/2015 INPUT READ FROM UNIT 1006
 # File generated by Flopy version 3.3.4 on 09/05/2021 at 19:37:07.
 PROCESSING GRIDDATA
 END PROCESSING GRIDDATA
 PROCESSING GRIDDATA

                ICELLTYPE = 1 FOR LAYER 1

                ICELLTYPE = 0 FOR LAYER 2

                ICELLTYPE = 0 FOR LAYER 3

                        K =   5.000000     FOR LAYER 1

                        K =  0.1000000     FOR LAYER 2

                        K =   10.00000     FOR LAYER 3
 K33 not provided.  Assuming K33 = K.
 K22 not provided.  Assuming K22 = K.
 END PROCESSING GRIDDATA

 STO -- STORAGE PACKAGE, VERSION 1, 5/19/2014 INPUT READ FROM UNIT 1011


 # File generated by Flopy version 3.3.4 on 09/05/2021 at 19:37:07.
 PROCESSING STORAGE OPTIONS
    CELL-BY-CELL FLOW INFORMATION WILL BE SAVED TO BINARY FILE WHENEVER ICBCFL IS NOT ZERO.
 END OF STORAGE OPTIONS
 PROCESSING GRIDDATA

                 ICONVERT = 1 FOR LAYER 1

                 ICONVERT = 0 FOR LAYER 2

                 ICONVERT = 0 FOR LAYER 3

         SPECIFIC STORAGE =  0.1000000E-04 FOR LAYER 1

         SPECIFIC STORAGE =  0.1000000E-04 FOR LAYER 2

         SPECIFIC STORAGE =  0.1000000E-04 FOR LAYER 3

           SPECIFIC YIELD =  0.2000000     FOR LAYER 1

           SPECIFIC YIELD =  0.2000000     FOR LAYER 2

           SPECIFIC YIELD =  0.2000000     FOR LAYER 3
 END PROCESSING GRIDDATA

The observation utility is active for "SYMP06"
 # File generated by Flopy version 3.3.4 on 09/05/2021 at 19:37:07.

Processing observation options:

Text output number of digits of precision set to: 10

    BINARY GRID INFORMATION WILL BE WRITTEN TO:
      UNIT NUMBER: 1018
      FILE NAME: C:\_data\onedrive\work\symple\course_repo\symple_flopy\models\symple_ex06\symp06.dis.grb

 OPENED C:\_data\onedrive\work\symple\course_repo\symple_flopy\models\symple_ex06\symp06.dis.grb
 FILE TYPE:DATA(BINARY)   UNIT 1018   STATUS:REPLACE             
 FORMAT:UNFORMATTED            ACCESS:STREAM              
 ACTION:READWRITE           

      THE LAST TIME STEP WILL BE PRINTED
      THE LAST TIME STEP WILL BE PRINTED
 # File generated by Flopy version 3.3.4 on 09/05/2021 at 19:37:07.

 PROCESSING OC OPTIONS

    BUDGET INFORMATION WILL BE WRITTEN TO:
      UNIT NUMBER: 1019
      FILE NAME: symp06.cbb

 OPENED symp06.cbb
 FILE TYPE:DATA(BINARY)   UNIT 1019   STATUS:REPLACE             
 FORMAT:UNFORMATTED            ACCESS:STREAM              
 ACTION:READWRITE           

    HEAD INFORMATION WILL BE WRITTEN TO:
      UNIT NUMBER: 1020
      FILE NAME: symp06.hds

 OPENED symp06.hds
 FILE TYPE:DATA(BINARY)   UNIT 1020   STATUS:REPLACE             
 FORMAT:UNFORMATTED            ACCESS:STREAM              
 ACTION:READWRITE           

 END OF OC OPTIONS

The observation utility is active for "RIV_0"
 # File generated by Flopy version 3.3.4 on 09/05/2021 at 19:37:07.

Processing observation options:

Text output number of digits of precision set to: 10


start timestep kper="1" kstp="1" mode="normal"


 BEGIN READING OUTPUT CONTROL FOR STRESS PERIOD 1
      ALL TIME STEPS WILL BE SAVED
      ALL TIME STEPS WILL BE SAVED
      THE LAST TIME STEP WILL BE PRINTED

 END READING OUTPUT CONTROL FOR STRESS PERIOD 1


 PROCESSING STORAGE PERIOD DATA
 END PROCESSING STORAGE PERIOD DATA


 STRESS PERIOD 1 IS STEADY-STATE


                 RECHARGE =  0.1369863E-03
 UBDSV1 SAVING           STO-SS ON UNIT   1019 AT TIME STEP      1, STRESS PERIOD      1
 UBDSV1 SAVING           STO-SY ON UNIT   1019 AT TIME STEP      1, STRESS PERIOD      1
 UBDSV1 SAVING     FLOW-JA-FACE ON UNIT   1019 AT TIME STEP      1, STRESS PERIOD      1
 UBDSV06 SAVING       DATA-SPDIS IN MODEL SYMP06           PACKAGE NPF             CONNECTED TO MODEL SYMP06           PACKAGE NPF              ON UNIT   1019 AT TIME STEP      1, STRESS PERIOD      1
 UBDSV06 SAVING              WEL IN MODEL SYMP06           PACKAGE SYMP06          CONNECTED TO MODEL SYMP06           PACKAGE WEL_0            ON UNIT   1019 AT TIME STEP      1, STRESS PERIOD      1
 UBDSV06 SAVING              RIV IN MODEL SYMP06           PACKAGE SYMP06          CONNECTED TO MODEL SYMP06           PACKAGE RIV_0            ON UNIT   1019 AT TIME STEP      1, STRESS PERIOD      1
 UBDSV06 SAVING              RCH IN MODEL SYMP06           PACKAGE SYMP06          CONNECTED TO MODEL SYMP06           PACKAGE RCH              ON UNIT   1019 AT TIME STEP      1, STRESS PERIOD      1

    CALCULATED INTERCELL FLOW FOR PERIOD 1 STEP 1
(1,1,1): (1,1,2) -1.696607E-05 (1,2,1) -9.452175E-02 (2,1,1) -1.27533
(1,1,2): (1,1,1) 1.696607E-05 (1,1,3) -7.032065E-05 (1,2,2) -9.452636E-02 (2,1,2) -1.27535
(1,1,3): (1,1,2) 7.032065E-05 (1,1,4) -1.063332E-04 (1,2,3) -9.453024E-02 (2,1,3) -1.27536
(1,1,4): (1,1,3) 1.063332E-04 (1,1,5) -1.266150E-04 (1,2,4) -9.453398E-02 (2,1,4) -1.27536
(1,1,5): (1,1,4) 1.266150E-04 (1,1,6) -1.309845E-04 (1,2,5) -9.453759E-02 (2,1,5) -1.27535
(1,1,6): (1,1,5) 1.309845E-04 (1,1,7) -1.221234E-04 (1,2,6) -9.453997E-02 (2,1,6) -1.27533
(1,1,7): (1,1,6) 1.221234E-04 (1,1,8) -9.869111E-05 (1,2,7) -9.453951E-02 (2,1,7) -1.27532
(1,1,8): (1,1,7) 9.869111E-05 (1,1,9) -6.549826E-05 (1,2,8) -9.453747E-02 (2,1,8) -1.27531
(1,1,9): (1,1,8) 6.549826E-05 (1,1,10) -2.530260E-05 (1,2,9) -9.453394E-02 (2,1,9) -1.27531
(1,1,10): (1,1,9) 2.530260E-05 (1,2,10) -9.452771E-02 (2,1,10) -1.27529
(1,2,1): (1,1,1) 9.452175E-02 (1,2,2) -2.159893E-05 (1,3,1) -0.188909 (2,2,1) -1.27552
(1,2,2): (1,1,2) 9.452636E-02 (1,2,1) 2.159893E-05 (1,2,3) -7.423976E-05 (1,3,2) -0.188909 (2,2,2) -1.27556
(1,2,3): (1,1,3) 9.453024E-02 (1,2,2) 7.423976E-05 (1,2,4) -1.101377E-04 (1,3,3) -0.188908 (2,2,3) -1.27556
(1,2,4): (1,1,4) 9.453398E-02 (1,2,3) 1.101377E-04 (1,2,5) -1.302892E-04 (1,3,4) -0.188902 (2,2,4) -1.27554
(1,2,5): (1,1,5) 9.453759E-02 (1,2,4) 1.302892E-04 (1,2,6) -1.334220E-04 (1,3,5) -0.188897 (2,2,5) -1.27552
(1,2,6): (1,1,6) 9.453997E-02 (1,2,5) 1.334220E-04 (1,2,7) -1.217248E-04 (1,3,6) -0.188891 (2,2,6) -1.27549
(1,2,7): (1,1,7) 9.453951E-02 (1,2,6) 1.217248E-04 (1,2,8) -9.669055E-05 (1,3,7) -0.188885 (2,2,7) -1.27547
(1,2,8): (1,1,8) 9.453747E-02 (1,2,7) 9.669055E-05 (1,2,9) -6.199195E-05 (1,3,8) -0.188879 (2,2,8) -1.27544
(1,2,9): (1,1,9) 9.453394E-02 (1,2,8) 6.199195E-05 (1,2,10) -1.907731E-05 (1,3,9) -0.188873 (2,2,9) -1.27543
(1,2,10): (1,1,10) 9.452771E-02 (1,2,9) 1.907731E-05 (1,3,10) -0.188871 (2,2,10) -1.27539
(1,3,1): (1,2,1) 0.188909 (1,3,2) -2.184069E-05 (1,4,1) -0.283073 (2,3,1) -1.27575
(1,3,2): (1,2,2) 0.188909 (1,3,1) 2.184069E-05 (1,3,3) -7.280310E-05 (1,4,2) -0.283071 (2,3,2) -1.27578
(1,3,3): (1,2,3) 0.188908 (1,3,2) 7.280310E-05 (1,3,4) -1.048966E-04 (1,4,3) -0.283065 (2,3,3) -1.27578
(1,3,4): (1,2,4) 0.188902 (1,3,3) 1.048966E-04 (1,3,5) -1.248149E-04 (1,4,4) -0.283057 (2,3,4) -1.27576
(1,3,5): (1,2,5) 0.188897 (1,3,4) 1.248149E-04 (1,3,6) -1.273507E-04 (1,4,5) -0.283045 (2,3,5) -1.27573
(1,3,6): (1,2,6) 0.188891 (1,3,5) 1.273507E-04 (1,3,7) -1.158916E-04 (1,4,6) -0.283033 (2,3,6) -1.27571
(1,3,7): (1,2,7) 0.188885 (1,3,6) 1.158916E-04 (1,3,8) -9.138119E-05 (1,4,7) -0.283022 (2,3,7) -1.27568
(1,3,8): (1,2,8) 0.188879 (1,3,7) 9.138119E-05 (1,3,9) -5.589699E-05 (1,4,8) -0.283012 (2,3,8) -1.27566
(1,3,9): (1,2,9) 0.188873 (1,3,8) 5.589699E-05 (1,3,10) -1.700263E-05 (1,4,9) -0.283008 (2,3,9) -1.27564
(1,3,10): (1,2,10) 0.188871 (1,3,9) 1.700263E-05 (1,4,10) -0.283005 (2,3,10) -1.27560
(1,4,1): (1,3,1) 0.283073 (1,4,2) -2.047504E-05 (1,5,1) -0.378187 (2,4,1) -1.27480
(1,4,2): (1,3,2) 0.283071 (1,4,1) 2.047504E-05 (1,4,3) -6.674395E-05 (1,5,2) -0.378182 (2,4,2) -1.27484
(1,4,3): (1,3,3) 0.283065 (1,4,2) 6.674395E-05 (1,4,4) -9.700514E-05 (1,5,3) -0.378174 (2,4,3) -1.27483
(1,4,4): (1,3,4) 0.283057 (1,4,3) 9.700514E-05 (1,4,5) -1.130800E-04 (1,5,4) -0.378161 (2,4,4) -1.27481
(1,4,5): (1,3,5) 0.283045 (1,4,4) 1.130800E-04 (1,4,6) -1.156401E-04 (1,5,5) -0.378147 (2,4,5) -1.27479
(1,4,6): (1,3,6) 0.283033 (1,4,5) 1.156401E-04 (1,4,7) -1.047113E-04 (1,5,6) -0.378131 (2,4,6) -1.27476
(1,4,7): (1,3,7) 0.283022 (1,4,6) 1.047113E-04 (1,4,8) -8.179392E-05 (1,5,7) -0.378116 (2,4,7) -1.27474
(1,4,8): (1,3,8) 0.283012 (1,4,7) 8.179392E-05 (1,4,9) -5.198794E-05 (1,5,8) -0.378106 (2,4,8) -1.27472
(1,4,9): (1,3,9) 0.283008 (1,4,8) 5.198794E-05 (1,4,10) -1.411537E-05 (1,5,9) -0.378097 (2,4,9) -1.27470
(1,4,10): (1,3,10) 0.283005 (1,4,9) 1.411537E-05 (1,5,10) -0.378098 (2,4,10) -1.27467
(1,5,1): (1,4,1) 0.378187 (1,5,2) -1.502477E-05 (1,6,1) -0.487208 (2,5,1) -1.26090
(1,5,2): (1,4,2) 0.378182 (1,5,1) 1.502477E-05 (1,5,3) -5.943387E-05 (1,6,2) -0.487206 (2,5,2) -1.26093
(1,5,3): (1,4,3) 0.378174 (1,5,2) 5.943387E-05 (1,5,4) -8.406870E-05 (1,6,3) -0.487194 (2,5,3) -1.26093
(1,5,4): (1,4,4) 0.378161 (1,5,3) 8.406870E-05 (1,5,5) -9.941096E-05 (1,6,4) -0.487179 (2,5,4) -1.26092
(1,5,5): (1,4,5) 0.378147 (1,5,4) 9.941096E-05 (1,5,6) -1.001593E-04 (1,6,5) -0.487160 (2,5,5) -1.26089
(1,5,6): (1,4,6) 0.378131 (1,5,5) 1.001593E-04 (1,5,7) -8.982362E-05 (1,6,6) -0.487141 (2,5,6) -1.26087
(1,5,7): (1,4,7) 0.378116 (1,5,6) 8.982362E-05 (1,5,8) -7.137969E-05 (1,6,7) -0.487125 (2,5,7) -1.26084
(1,5,8): (1,4,8) 0.378106 (1,5,7) 7.137969E-05 (1,5,9) -4.321145E-05 (1,6,8) -0.487110 (2,5,8) -1.26083
(1,5,9): (1,4,9) 0.378097 (1,5,8) 4.321145E-05 (1,5,10) -1.522134E-05 (1,6,9) -0.487104 (2,5,9) -1.26082
(1,5,10): (1,4,10) 0.378098 (1,5,9) 1.522134E-05 (1,6,10) -0.487101 (2,5,10) -1.26080
(1,6,1): (1,5,1) 0.487208 (1,6,2) -1.235569E-05 (1,7,1) -0.738660 (2,6,1) -1.11848
(1,6,2): (1,5,2) 0.487206 (1,6,1) 1.235569E-05 (1,6,3) -4.783418E-05 (1,7,2) -0.738656 (2,6,2) -1.11850
(1,6,3): (1,5,3) 0.487194 (1,6,2) 4.783418E-05 (1,6,4) -6.937888E-05 (1,7,3) -0.738642 (2,6,3) -1.11851
(1,6,4): (1,5,4) 0.487179 (1,6,3) 6.937888E-05 (1,6,5) -8.034185E-05 (1,7,4) -0.738621 (2,6,4) -1.11850
(1,6,5): (1,5,5) 0.487160 (1,6,4) 8.034185E-05 (1,6,6) -8.175941E-05 (1,7,5) -0.738598 (2,6,5) -1.11848
(1,6,6): (1,5,6) 0.487141 (1,6,5) 8.175941E-05 (1,6,7) -7.361343E-05 (1,7,6) -0.738574 (2,6,6) -1.11846
(1,6,7): (1,5,7) 0.487125 (1,6,6) 7.361343E-05 (1,6,8) -5.676758E-05 (1,7,7) -0.738552 (2,6,7) -1.11845
(1,6,8): (1,5,8) 0.487110 (1,6,7) 5.676758E-05 (1,6,9) -3.771571E-05 (1,7,8) -0.738537 (2,6,8) -1.11844
(1,6,9): (1,5,9) 0.487104 (1,6,8) 3.771571E-05 (1,6,10) -1.142835E-05 (1,7,9) -0.738526 (2,6,9) -1.11843
(1,6,10): (1,5,10) 0.487101 (1,6,9) 1.142835E-05 (1,7,10) -0.738522 (2,6,10) -1.11841
(1,7,1): (1,6,1) 0.738660 (1,7,2) -8.338036E-06 (1,8,1) -2.39778 (2,7,1) 0.289191
(1,7,2): (1,6,2) 0.738656 (1,7,1) 8.338036E-06 (1,7,3) -3.422068E-05 (1,8,2) -2.39777 (2,7,2) 0.289192
(1,7,3): (1,6,3) 0.738642 (1,7,2) 3.422068E-05 (1,7,4) -4.894560E-05 (1,8,3) -2.39774 (2,7,3) 0.289181
(1,7,4): (1,6,4) 0.738621 (1,7,3) 4.894560E-05 (1,7,5) -5.749294E-05 (1,8,4) -2.39770 (2,7,4) 0.289170
(1,7,5): (1,6,5) 0.738598 (1,7,4) 5.749294E-05 (1,7,6) -5.797133E-05 (1,8,5) -2.39765 (2,7,5) 0.289162
(1,7,6): (1,6,6) 0.738574 (1,7,5) 5.797133E-05 (1,7,7) -5.170773E-05 (1,8,6) -2.39760 (2,7,6) 0.289152
(1,7,7): (1,6,7) 0.738552 (1,7,6) 5.170773E-05 (1,7,8) -4.146064E-05 (1,8,7) -2.39756 (2,7,7) 0.289143
(1,7,8): (1,6,8) 0.738537 (1,7,7) 4.146064E-05 (1,7,9) -2.671245E-05 (1,8,8) -2.39752 (2,7,8) 0.289137
(1,7,9): (1,6,9) 0.738526 (1,7,8) 2.671245E-05 (1,7,10) -7.272226E-06 (1,8,9) -2.39750 (2,7,9) 0.289125
(1,7,10): (1,6,10) 0.738522 (1,7,9) 7.272226E-06 (1,8,10) -2.39749 (2,7,10) 0.289157
(1,8,1): (1,7,1) 2.39778 (1,8,2) -4.847482E-07 (1,9,1) 2.39791 (2,8,1) 14.3871
(1,8,2): (1,7,2) 2.39777 (1,8,1) 4.847482E-07 (1,8,3) -4.591906E-06 (1,9,2) 2.39791 (2,8,2) 14.3871
(1,8,3): (1,7,3) 2.39774 (1,8,2) 4.591906E-06 (1,8,4) -6.949511E-06 (1,9,3) 2.39789 (2,8,3) 14.3870
(1,8,4): (1,7,4) 2.39770 (1,8,3) 6.949511E-06 (1,8,5) -8.123770E-06 (1,9,4) 2.39787 (2,8,4) 14.3868
(1,8,5): (1,7,5) 2.39765 (1,8,4) 8.123770E-06 (1,8,6) -8.244642E-06 (1,9,5) 2.39784 (2,8,5) 14.3865
(1,8,6): (1,7,6) 2.39760 (1,8,5) 8.244642E-06 (1,8,7) -7.500894E-06 (1,9,6) 2.39781 (2,8,6) 14.3863
(1,8,7): (1,7,7) 2.39756 (1,8,6) 7.500894E-06 (1,8,8) -6.002495E-06 (1,9,7) 2.39779 (2,8,7) 14.3861
(1,8,8): (1,7,8) 2.39752 (1,8,7) 6.002495E-06 (1,8,9) -4.200372E-06 (1,9,8) 2.39776 (2,8,8) 14.3859
(1,8,9): (1,7,9) 2.39750 (1,8,8) 4.200372E-06 (1,8,10) -2.221873E-06 (1,9,9) 2.39775 (2,8,9) 14.3858
(1,8,10): (1,7,10) 2.39749 (1,8,9) 2.221873E-06 (1,9,10) 2.39774 (2,8,10) 14.3857
(1,9,1): (1,8,1) -2.39791 (1,9,2) 4.811574E-07 (1,10,1) 0.738795 (2,9,1) 0.289201
(1,9,2): (1,8,2) -2.39791 (1,9,1) -4.811574E-07 (1,9,3) -1.950272E-05 (1,10,2) 0.738797 (2,9,2) 0.289193
(1,9,3): (1,8,3) -2.39789 (1,9,2) 1.950272E-05 (1,9,4) -3.022899E-05 (1,10,3) 0.738797 (2,9,3) 0.289168
(1,9,4): (1,8,4) -2.39787 (1,9,3) 3.022899E-05 (1,9,5) -3.661337E-05 (1,10,4) 0.738792 (2,9,4) 0.289148
(1,9,5): (1,8,5) -2.39784 (1,9,4) 3.661337E-05 (1,9,6) -3.700269E-05 (1,10,5) 0.738788 (2,9,5) 0.289128
(1,9,6): (1,8,6) -2.39781 (1,9,5) 3.700269E-05 (1,9,7) -3.398585E-05 (1,10,6) 0.738783 (2,9,6) 0.289106
(1,9,7): (1,8,7) -2.39779 (1,9,6) 3.398585E-05 (1,9,8) -2.859326E-05 (1,10,7) 0.738779 (2,9,7) 0.289089
(1,9,8): (1,8,8) -2.39776 (1,9,7) 2.859326E-05 (1,9,9) -2.090779E-05 (1,10,8) 0.738776 (2,9,8) 0.289073
(1,9,9): (1,8,9) -2.39775 (1,9,8) 2.090779E-05 (1,9,10) -1.030092E-05 (1,10,9) 0.738772 (2,9,9) 0.289058
(1,9,10): (1,8,10) -2.39774 (1,9,9) 1.030092E-05 (1,10,10) 0.738768 (2,9,10) 0.289058
(1,10,1): (1,9,1) -0.738795 (1,10,2) 2.569583E-06 (1,11,1) 0.487325 (2,10,1) -1.11843
(1,10,2): (1,9,2) -0.738797 (1,10,1) -2.569583E-06 (1,10,3) -2.002317E-05 (1,11,2) 0.487328 (2,10,2) -1.11846
(1,10,3): (1,9,3) -0.738797 (1,10,2) 2.002317E-05 (1,10,4) -3.482252E-05 (1,11,3) 0.487325 (2,10,3) -1.11847
(1,10,4): (1,9,4) -0.738792 (1,10,3) 3.482252E-05 (1,10,5) -4.050265E-05 (1,11,4) 0.487326 (2,10,4) -1.11846
(1,10,5): (1,9,5) -0.738788 (1,10,4) 4.050265E-05 (1,10,6) -4.120291E-05 (1,11,5) 0.487325 (2,10,5) -1.11846
(1,10,6): (1,9,6) -0.738783 (1,10,5) 4.120291E-05 (1,10,7) -3.819039E-05 (1,11,6) 0.487324 (2,10,6) -1.11846
(1,10,7): (1,9,7) -0.738779 (1,10,6) 3.819039E-05 (1,10,8) -3.148006E-05 (1,11,7) 0.487324 (2,10,7) -1.11845
(1,10,8): (1,9,8) -0.738776 (1,10,7) 3.148006E-05 (1,10,9) -2.490413E-05 (1,11,8) 0.487322 (2,10,8) -1.11845
(1,10,9): (1,9,9) -0.738772 (1,10,8) 2.490413E-05 (1,10,10) -1.423655E-05 (1,11,9) 0.487321 (2,10,9) -1.11845
(1,10,10): (1,9,10) -0.738768 (1,10,9) 1.423655E-05 (1,11,10) 0.487317 (2,10,10) -1.11845
(1,11,1): (1,10,1) -0.487325 (1,11,2) 5.840047E-06 (1,12,1) 0.378285 (2,11,1) -1.26088
(1,11,2): (1,10,2) -0.487328 (1,11,1) -5.840047E-06 (1,11,3) -2.315939E-05 (1,12,2) 0.378281 (2,11,2) -1.26092
(1,11,3): (1,10,3) -0.487325 (1,11,2) 2.315939E-05 (1,11,4) -3.365028E-05 (1,12,3) 0.378283 (2,11,3) -1.26092
(1,11,4): (1,10,4) -0.487326 (1,11,3) 3.365028E-05 (1,11,5) -4.146085E-05 (1,12,4) 0.378282 (2,11,4) -1.26092
(1,11,5): (1,10,5) -0.487325 (1,11,4) 4.146085E-05 (1,11,6) -4.201335E-05 (1,12,5) 0.378282 (2,11,5) -1.26091
(1,11,6): (1,10,6) -0.487324 (1,11,5) 4.201335E-05 (1,11,7) -3.822062E-05 (1,12,6) 0.378282 (2,11,6) -1.26090
(1,11,7): (1,10,7) -0.487324 (1,11,6) 3.822062E-05 (1,11,8) -3.333340E-05 (1,12,7) 0.378282 (2,11,7) -1.26090
(1,11,8): (1,10,8) -0.487322 (1,11,7) 3.333340E-05 (1,11,9) -2.530574E-05 (1,12,8) 0.378283 (2,11,8) -1.26089
(1,11,9): (1,10,9) -0.487321 (1,11,8) 2.530574E-05 (1,11,10) -1.847405E-05 (1,12,9) 0.378282 (2,11,9) -1.26089
(1,11,10): (1,10,10) -0.487317 (1,11,9) 1.847405E-05 (1,12,10) 0.378282 (2,11,10) -1.26089
(1,12,1): (1,11,1) -0.378285 (1,12,2) 2.175025E-06 (1,13,1) 0.283145 (2,12,1) -1.27480
(1,12,2): (1,11,2) -0.378281 (1,12,1) -2.175025E-06 (1,12,3) -2.167425E-05 (1,13,2) 0.283147 (2,12,2) -1.27483
(1,12,3): (1,11,3) -0.378283 (1,12,2) 2.167425E-05 (1,12,4) -3.475183E-05 (1,13,3) 0.283145 (2,12,3) -1.27484
(1,12,4): (1,11,4) -0.378282 (1,12,3) 3.475183E-05 (1,12,5) -4.083286E-05 (1,13,4) 0.283146 (2,12,4) -1.27483
(1,12,5): (1,11,5) -0.378282 (1,12,4) 4.083286E-05 (1,12,6) -4.170181E-05 (1,13,5) 0.283146 (2,12,5) -1.27482
(1,12,6): (1,11,6) -0.378282 (1,12,5) 4.170181E-05 (1,12,7) -3.859084E-05 (1,13,6) 0.283147 (2,12,6) -1.27482
(1,12,7): (1,11,7) -0.378282 (1,12,6) 3.859084E-05 (1,12,8) -3.226696E-05 (1,13,7) 0.283148 (2,12,7) -1.27481
(1,12,8): (1,11,8) -0.378283 (1,12,7) 3.226696E-05 (1,12,9) -2.661372E-05 (1,13,8) 0.283148 (2,12,8) -1.27481
(1,12,9): (1,11,9) -0.378282 (1,12,8) 2.661372E-05 (1,12,10) -1.822919E-05 (1,13,9) 0.283149 (2,12,9) -1.27481
(1,12,10): (1,11,10) -0.378282 (1,12,9) 1.822919E-05 (1,13,10) 0.283148 (2,12,10) -1.27481
(1,13,1): (1,12,1) -0.283145 (1,13,2) 4.476087E-06 (1,14,1) 0.188960 (2,13,1) -1.27575
(1,13,2): (1,12,2) -0.283147 (1,13,1) -4.476087E-06 (1,13,3) -2.378015E-05 (1,14,2) 0.188956 (2,13,2) -1.27578
(1,13,3): (1,12,3) -0.283145 (1,13,2) 2.378015E-05 (1,13,4) -3.375898E-05 (1,14,3) 0.188957 (2,13,3) -1.27578
(1,13,4): (1,12,4) -0.283146 (1,13,3) 3.375898E-05 (1,13,5) -4.008872E-05 (1,14,4) 0.188957 (2,13,4) -1.27578
(1,13,5): (1,12,5) -0.283146 (1,13,4) 4.008872E-05 (1,13,6) -4.111674E-05 (1,14,5) 0.188958 (2,13,5) -1.27577
(1,13,6): (1,12,6) -0.283147 (1,13,5) 4.111674E-05 (1,13,7) -3.743344E-05 (1,14,6) 0.188959 (2,13,6) -1.27576
(1,13,7): (1,12,7) -0.283148 (1,13,6) 3.743344E-05 (1,13,8) -3.250635E-05 (1,14,7) 0.188960 (2,13,7) -1.27576
(1,13,8): (1,12,8) -0.283148 (1,13,7) 3.250635E-05 (1,13,9) -2.549365E-05 (1,14,8) 0.188961 (2,13,8) -1.27575
(1,13,9): (1,12,9) -0.283149 (1,13,8) 2.549365E-05 (1,13,10) -1.923220E-05 (1,14,9) 0.188961 (2,13,9) -1.27575
(1,13,10): (1,12,10) -0.283148 (1,13,9) 1.923220E-05 (1,14,10) 0.188961 (2,13,10) -1.27576
(1,14,1): (1,13,1) -0.188960 (1,14,2) 1.102033E-06 (1,15,1) 9.455537E-02 (2,14,1) -1.27554
(1,14,2): (1,13,2) -0.188956 (1,14,1) -1.102033E-06 (1,14,3) -2.299940E-05 (1,15,2) 9.455155E-02 (2,14,2) -1.27556
(1,14,3): (1,13,3) -0.188957 (1,14,2) 2.299940E-05 (1,14,4) -3.389831E-05 (1,15,3) 9.455189E-02 (2,14,3) -1.27556
(1,14,4): (1,13,4) -0.188957 (1,14,3) 3.389831E-05 (1,14,5) -3.906448E-05 (1,15,4) 9.455329E-02 (2,14,4) -1.27556
(1,14,5): (1,13,5) -0.188958 (1,14,4) 3.906448E-05 (1,14,6) -3.993227E-05 (1,15,5) 9.455493E-02 (2,14,5) -1.27555
(1,14,6): (1,13,6) -0.188959 (1,14,5) 3.993227E-05 (1,14,7) -3.675012E-05 (1,15,6) 9.455652E-02 (2,14,6) -1.27555
(1,14,7): (1,13,7) -0.188960 (1,14,6) 3.675012E-05 (1,14,8) -3.117753E-05 (1,15,7) 9.455780E-02 (2,14,7) -1.27554
(1,14,8): (1,13,8) -0.188961 (1,14,7) 3.117753E-05 (1,14,9) -2.574010E-05 (1,15,8) 9.455836E-02 (2,14,8) -1.27554
(1,14,9): (1,13,9) -0.188961 (1,14,8) 2.574010E-05 (1,14,10) -1.881277E-05 (1,15,9) 9.455885E-02 (2,14,9) -1.27554
(1,14,10): (1,13,10) -0.188961 (1,14,9) 1.881277E-05 (1,15,10) 9.455911E-02 (2,14,10) -1.27555
(1,15,1): (1,14,1) -9.455537E-02 (1,15,2) -2.716638E-06 (2,15,1) -1.27537
(1,15,2): (1,14,2) -9.455155E-02 (1,15,1) 2.716638E-06 (1,15,3) -2.264421E-05 (2,15,2) -1.27542
(1,15,3): (1,14,3) -9.455189E-02 (1,15,2) 2.264421E-05 (1,15,4) -3.247420E-05 (2,15,3) -1.27541
(1,15,4): (1,14,4) -9.455329E-02 (1,15,3) 3.247420E-05 (1,15,5) -3.741422E-05 (2,15,4) -1.27541
(1,15,5): (1,14,5) -9.455493E-02 (1,15,4) 3.741422E-05 (1,15,6) -3.833025E-05 (2,15,5) -1.27540
(1,15,6): (1,14,6) -9.455652E-02 (1,15,5) 3.833025E-05 (1,15,7) -3.546120E-05 (2,15,6) -1.27539
(1,15,7): (1,14,7) -9.455780E-02 (1,15,6) 3.546120E-05 (1,15,8) -3.062056E-05 (2,15,7) -1.27538
(1,15,8): (1,14,8) -9.455836E-02 (1,15,7) 3.062056E-05 (1,15,9) -2.524698E-05 (2,15,8) -1.27538
(1,15,9): (1,14,9) -9.455885E-02 (1,15,8) 2.524698E-05 (1,15,10) -1.856721E-05 (2,15,9) -1.27538
(1,15,10): (1,14,10) -9.455911E-02 (1,15,9) 1.856721E-05 (2,15,10) -1.27539
(2,1,1): (1,1,1) 1.27533 (2,1,2) -3.581756E-07 (2,2,1) -1.818834E-03 (3,1,1) -1.27362
(2,1,2): (1,1,2) 1.27535 (2,1,1) 3.581756E-07 (2,1,3) -1.362979E-06 (2,2,2) -1.818937E-03 (3,1,2) -1.27362
(2,1,3): (1,1,3) 1.27536 (2,1,2) 1.362979E-06 (2,1,4) -2.039978E-06 (2,2,3) -1.819001E-03 (3,1,3) -1.27359
(2,1,4): (1,1,4) 1.27536 (2,1,3) 2.039978E-06 (2,1,5) -2.423763E-06 (2,2,4) -1.819060E-03 (3,1,4) -1.27354
(2,1,5): (1,1,5) 1.27535 (2,1,4) 2.423763E-06 (2,1,6) -2.500364E-06 (2,2,5) -1.819117E-03 (3,1,5) -1.27348
(2,1,6): (1,1,6) 1.27533 (2,1,5) 2.500364E-06 (2,1,7) -2.328572E-06 (2,2,6) -1.819151E-03 (3,1,6) -1.27342
(2,1,7): (1,1,7) 1.27532 (2,1,6) 2.328572E-06 (2,1,8) -1.886241E-06 (2,2,7) -1.819130E-03 (3,1,7) -1.27337
(2,1,8): (1,1,8) 1.27531 (2,1,7) 1.886241E-06 (2,1,9) -1.254603E-06 (2,2,8) -1.819072E-03 (3,1,8) -1.27333
(2,1,9): (1,1,9) 1.27531 (2,1,8) 1.254603E-06 (2,1,10) -4.659511E-07 (2,2,9) -1.818990E-03 (3,1,9) -1.27331
(2,1,10): (1,1,10) 1.27529 (2,1,9) 4.659511E-07 (2,2,10) -1.818845E-03 (3,1,10) -1.27337
(2,2,1): (1,2,1) 1.27552 (2,1,1) 1.818834E-03 (2,2,2) -4.615875E-07 (2,3,1) -3.638694E-03 (3,2,1) -1.27381
(2,2,2): (1,2,2) 1.27556 (2,1,2) 1.818937E-03 (2,2,1) 4.615875E-07 (2,2,3) -1.426276E-06 (2,3,2) -3.638697E-03 (3,2,2) -1.27382
(2,2,3): (1,2,3) 1.27556 (2,1,3) 1.819001E-03 (2,2,2) 1.426276E-06 (2,2,4) -2.099110E-06 (2,3,3) -3.638667E-03 (3,2,3) -1.27378
(2,2,4): (1,2,4) 1.27554 (2,1,4) 1.819060E-03 (2,2,3) 2.099110E-06 (2,2,5) -2.481108E-06 (2,3,4) -3.638562E-03 (3,2,4) -1.27372
(2,2,5): (1,2,5) 1.27552 (2,1,5) 1.819117E-03 (2,2,4) 2.481108E-06 (2,2,6) -2.533932E-06 (2,3,5) -3.638456E-03 (3,2,5) -1.27366
(2,2,6): (1,2,6) 1.27549 (2,1,6) 1.819151E-03 (2,2,5) 2.533932E-06 (2,2,7) -2.307870E-06 (2,3,6) -3.638344E-03 (3,2,6) -1.27359
(2,2,7): (1,2,7) 1.27547 (2,1,7) 1.819130E-03 (2,2,6) 2.307870E-06 (2,2,8) -1.828580E-06 (2,3,7) -3.638236E-03 (3,2,7) -1.27353
(2,2,8): (1,2,8) 1.27544 (2,1,8) 1.819072E-03 (2,2,7) 1.828580E-06 (2,2,9) -1.172648E-06 (2,3,8) -3.638140E-03 (3,2,8) -1.27348
(2,2,9): (1,2,9) 1.27543 (2,1,9) 1.818990E-03 (2,2,8) 1.172648E-06 (2,2,10) -3.208755E-07 (2,3,9) -3.638017E-03 (3,2,9) -1.27345
(2,2,10): (1,2,10) 1.27539 (2,1,10) 1.818845E-03 (2,2,9) 3.208755E-07 (2,3,10) -3.637977E-03 (3,2,10) -1.27349
(2,3,1): (1,3,1) 1.27575 (2,2,1) 3.638694E-03 (2,3,2) -4.645266E-07 (2,4,1) -5.460341E-03 (3,3,1) -1.27403
(2,3,2): (1,3,2) 1.27578 (2,2,2) 3.638697E-03 (2,3,1) 4.645266E-07 (2,3,3) -1.396789E-06 (2,4,2) -5.460315E-03 (3,3,2) -1.27405
(2,3,3): (1,3,3) 1.27578 (2,2,3) 3.638667E-03 (2,3,2) 1.396789E-06 (2,3,4) -1.994248E-06 (2,4,3) -5.460206E-03 (3,3,3) -1.27400
(2,3,4): (1,3,4) 1.27576 (2,2,4) 3.638562E-03 (2,3,3) 1.994248E-06 (2,3,5) -2.375033E-06 (2,4,4) -5.460057E-03 (3,3,4) -1.27395
(2,3,5): (1,3,5) 1.27573 (2,2,5) 3.638456E-03 (2,3,4) 2.375033E-06 (2,3,6) -2.422185E-06 (2,4,5) -5.459834E-03 (3,3,5) -1.27388
(2,3,6): (1,3,6) 1.27571 (2,2,6) 3.638344E-03 (2,3,5) 2.422185E-06 (2,3,7) -2.199106E-06 (2,4,6) -5.459611E-03 (3,3,6) -1.27382
(2,3,7): (1,3,7) 1.27568 (2,2,7) 3.638236E-03 (2,3,6) 2.199106E-06 (2,3,8) -1.732743E-06 (2,4,7) -5.459405E-03 (3,3,7) -1.27376
(2,3,8): (1,3,8) 1.27566 (2,2,8) 3.638140E-03 (2,3,7) 1.732743E-06 (2,3,9) -1.049993E-06 (2,4,8) -5.459225E-03 (3,3,8) -1.27371
(2,3,9): (1,3,9) 1.27564 (2,2,9) 3.638017E-03 (2,3,8) 1.049993E-06 (2,3,10) -2.804797E-07 (2,4,9) -5.459159E-03 (3,3,9) -1.27369
(2,3,10): (1,3,10) 1.27560 (2,2,10) 3.637977E-03 (2,3,9) 2.804797E-07 (2,4,10) -5.459114E-03 (3,3,10) -1.27371
(2,4,1): (1,4,1) 1.27480 (2,3,1) 5.460341E-03 (2,4,2) -4.393796E-07 (2,5,1) -7.296655E-03 (3,4,1) -1.27308
(2,4,2): (1,4,2) 1.27484 (2,3,2) 5.460315E-03 (2,4,1) 4.393796E-07 (2,4,3) -1.287456E-06 (2,5,2) -7.296553E-03 (3,4,2) -1.27309
(2,4,3): (1,4,3) 1.27483 (2,3,3) 5.460206E-03 (2,4,2) 1.287456E-06 (2,4,4) -1.844624E-06 (2,5,3) -7.296417E-03 (3,4,3) -1.27306
(2,4,4): (1,4,4) 1.27481 (2,3,4) 5.460057E-03 (2,4,3) 1.844624E-06 (2,4,5) -2.152196E-06 (2,5,4) -7.296180E-03 (3,4,4) -1.27300
(2,4,5): (1,4,5) 1.27479 (2,3,5) 5.459834E-03 (2,4,4) 2.152196E-06 (2,4,6) -2.199298E-06 (2,5,5) -7.295922E-03 (3,4,5) -1.27294
(2,4,6): (1,4,6) 1.27476 (2,3,6) 5.459611E-03 (2,4,5) 2.199298E-06 (2,4,7) -1.992861E-06 (2,5,6) -7.295633E-03 (3,4,6) -1.27288
(2,4,7): (1,4,7) 1.27474 (2,3,7) 5.459405E-03 (2,4,6) 1.992861E-06 (2,4,8) -1.552781E-06 (2,5,7) -7.295349E-03 (3,4,7) -1.27282
(2,4,8): (1,4,8) 1.27472 (2,3,8) 5.459225E-03 (2,4,7) 1.552781E-06 (2,4,9) -9.841535E-07 (2,5,8) -7.295157E-03 (3,4,8) -1.27280
(2,4,9): (1,4,9) 1.27470 (2,3,9) 5.459159E-03 (2,4,8) 9.841535E-07 (2,4,10) -2.357943E-07 (2,5,9) -7.294999E-03 (3,4,9) -1.27276
(2,4,10): (1,4,10) 1.27467 (2,3,10) 5.459114E-03 (2,4,9) 2.357943E-07 (2,5,10) -7.295026E-03 (3,4,10) -1.27279
(2,5,1): (1,5,1) 1.26090 (2,4,1) 7.296655E-03 (2,5,2) -3.366459E-07 (2,6,1) -9.268909E-03 (3,5,1) -1.25900
(2,5,2): (1,5,2) 1.26093 (2,4,2) 7.296553E-03 (2,5,1) 3.366459E-07 (2,5,3) -1.152367E-06 (2,6,2) -9.268841E-03 (3,5,2) -1.25903
(2,5,3): (1,5,3) 1.26093 (2,4,3) 7.296417E-03 (2,5,2) 1.152367E-06 (2,5,4) -1.607405E-06 (2,6,3) -9.268625E-03 (3,5,3) -1.25900
(2,5,4): (1,5,4) 1.26092 (2,4,4) 7.296180E-03 (2,5,3) 1.607405E-06 (2,5,5) -1.893748E-06 (2,6,4) -9.268352E-03 (3,5,4) -1.25896
(2,5,5): (1,5,5) 1.26089 (2,4,5) 7.295922E-03 (2,5,4) 1.893748E-06 (2,5,6) -1.910885E-06 (2,6,5) -9.268001E-03 (3,5,5) -1.25890
(2,5,6): (1,5,6) 1.26087 (2,4,6) 7.295633E-03 (2,5,5) 1.910885E-06 (2,5,7) -1.708015E-06 (2,6,6) -9.267654E-03 (3,5,6) -1.25885
(2,5,7): (1,5,7) 1.26084 (2,4,7) 7.295349E-03 (2,5,6) 1.708015E-06 (2,5,8) -1.361628E-06 (2,6,7) -9.267356E-03 (3,5,7) -1.25881
(2,5,8): (1,5,8) 1.26083 (2,4,8) 7.295157E-03 (2,5,7) 1.361628E-06 (2,5,9) -8.253824E-07 (2,6,8) -9.267084E-03 (3,5,8) -1.25877
(2,5,9): (1,5,9) 1.26082 (2,4,9) 7.294999E-03 (2,5,8) 8.253824E-07 (2,5,10) -2.629069E-07 (2,6,9) -9.266983E-03 (3,5,9) -1.25877
(2,5,10): (1,5,10) 1.26080 (2,4,10) 7.295026E-03 (2,5,9) 2.629069E-07 (2,6,10) -9.266922E-03 (3,5,10) -1.25877
(2,6,1): (1,6,1) 1.11848 (2,5,1) 9.268909E-03 (2,6,2) -2.681826E-07 (2,7,1) -1.257009E-02 (3,6,1) -1.11518
(2,6,2): (1,6,2) 1.11850 (2,5,2) 9.268841E-03 (2,6,1) 2.681826E-07 (2,6,3) -9.365553E-07 (2,7,2) -1.256998E-02 (3,6,2) -1.11520
(2,6,3): (1,6,3) 1.11851 (2,5,3) 9.268625E-03 (2,6,2) 9.365553E-07 (2,6,4) -1.334533E-06 (2,7,3) -1.256973E-02 (3,6,3) -1.11518
(2,6,4): (1,6,4) 1.11850 (2,5,4) 9.268352E-03 (2,6,3) 1.334533E-06 (2,6,5) -1.542252E-06 (2,7,4) -1.256937E-02 (3,6,4) -1.11515
(2,6,5): (1,6,5) 1.11848 (2,5,5) 9.268001E-03 (2,6,4) 1.542252E-06 (2,6,6) -1.564508E-06 (2,7,5) -1.256896E-02 (3,6,5) -1.11511
(2,6,6): (1,6,6) 1.11846 (2,5,6) 9.267654E-03 (2,6,5) 1.564508E-06 (2,6,7) -1.409492E-06 (2,7,6) -1.256854E-02 (3,6,6) -1.11507
(2,6,7): (1,6,7) 1.11845 (2,5,7) 9.267356E-03 (2,6,6) 1.409492E-06 (2,6,8) -1.090185E-06 (2,7,7) -1.256815E-02 (3,6,7) -1.11504
(2,6,8): (1,6,8) 1.11844 (2,5,8) 9.267084E-03 (2,6,7) 1.090185E-06 (2,6,9) -7.238975E-07 (2,7,8) -1.256788E-02 (3,6,8) -1.11502
(2,6,9): (1,6,9) 1.11843 (2,5,9) 9.266983E-03 (2,6,8) 7.238975E-07 (2,6,10) -2.023953E-07 (2,7,9) -1.256770E-02 (3,6,9) -1.11500
(2,6,10): (1,6,10) 1.11841 (2,5,10) 9.266922E-03 (2,6,9) 2.023953E-07 (2,7,10) -1.256759E-02 (3,6,10) -1.11502
(2,7,1): (1,7,1) -0.289191 (2,6,1) 1.257009E-02 (2,7,2) -1.627096E-07 (2,8,1) -2.899019E-02 (3,7,1) 0.305532
(2,7,2): (1,7,2) -0.289192 (2,6,2) 1.256998E-02 (2,7,1) 1.627096E-07 (2,7,3) -6.832502E-07 (2,8,2) -2.899008E-02 (3,7,2) 0.305540
(2,7,3): (1,7,3) -0.289181 (2,6,3) 1.256973E-02 (2,7,2) 6.832502E-07 (2,7,4) -9.709034E-07 (2,8,3) -2.898966E-02 (3,7,3) 0.305541
(2,7,4): (1,7,4) -0.289170 (2,6,4) 1.256937E-02 (2,7,3) 9.709034E-07 (2,7,5) -1.134672E-06 (2,8,4) -2.898909E-02 (3,7,4) 0.305540
(2,7,5): (1,7,5) -0.289162 (2,6,5) 1.256896E-02 (2,7,4) 1.134672E-06 (2,7,6) -1.146399E-06 (2,8,5) -2.898842E-02 (3,7,5) 0.305542
(2,7,6): (1,7,6) -0.289152 (2,6,6) 1.256854E-02 (2,7,5) 1.146399E-06 (2,7,7) -1.021693E-06 (2,8,6) -2.898775E-02 (3,7,6) 0.305543
(2,7,7): (1,7,7) -0.289143 (2,6,7) 1.256815E-02 (2,7,6) 1.021693E-06 (2,7,8) -8.182841E-07 (2,8,7) -2.898716E-02 (3,7,7) 0.305538
(2,7,8): (1,7,8) -0.289137 (2,6,8) 1.256788E-02 (2,7,7) 8.182841E-07 (2,7,9) -5.376785E-07 (2,8,8) -2.898669E-02 (3,7,8) 0.305538
(2,7,9): (1,7,9) -0.289125 (2,6,9) 1.256770E-02 (2,7,8) 5.376785E-07 (2,7,10) -1.012347E-07 (2,8,9) -2.898639E-02 (3,7,9) 0.305537
(2,7,10): (1,7,10) -0.289157 (2,6,10) 1.256759E-02 (2,7,9) 1.012347E-07 (2,8,10) -2.898642E-02 (3,7,10) 0.305478
(2,8,1): (1,8,1) -14.3871 (2,7,1) 2.899019E-02 (2,8,2) -4.386343E-08 (2,9,1) 2.899268E-02 (3,8,1) 14.3291
(2,8,2): (1,8,2) -14.3871 (2,7,2) 2.899008E-02 (2,8,1) 4.386343E-08 (2,8,3) -2.661902E-07 (2,9,2) 2.899272E-02 (3,8,2) 14.3291
(2,8,3): (1,8,3) -14.3870 (2,7,3) 2.898966E-02 (2,8,2) 2.661902E-07 (2,8,4) -3.986643E-07 (2,9,3) 2.899258E-02 (3,8,3) 14.3289
(2,8,4): (1,8,4) -14.3868 (2,7,4) 2.898909E-02 (2,8,3) 3.986643E-07 (2,8,5) -4.674330E-07 (2,9,4) 2.899236E-02 (3,8,4) 14.3287
(2,8,5): (1,8,5) -14.3865 (2,7,5) 2.898842E-02 (2,8,4) 4.674330E-07 (2,8,6) -4.756279E-07 (2,9,5) 2.899208E-02 (3,8,5) 14.3285
(2,8,6): (1,8,6) -14.3863 (2,7,6) 2.898775E-02 (2,8,5) 4.756279E-07 (2,8,7) -4.324782E-07 (2,9,6) 2.899181E-02 (3,8,6) 14.3283
(2,8,7): (1,8,7) -14.3861 (2,7,7) 2.898716E-02 (2,8,6) 4.324782E-07 (2,8,8) -3.488151E-07 (2,9,7) 2.899155E-02 (3,8,7) 14.3281
(2,8,8): (1,8,8) -14.3859 (2,7,8) 2.898669E-02 (2,8,7) 3.488151E-07 (2,8,9) -2.418008E-07 (2,9,8) 2.899132E-02 (3,8,8) 14.3279
(2,8,9): (1,8,9) -14.3858 (2,7,9) 2.898639E-02 (2,8,8) 2.418008E-07 (2,8,10) -1.242074E-07 (2,9,9) 2.899114E-02 (3,8,9) 14.3278
(2,8,10): (1,8,10) -14.3857 (2,7,10) 2.898642E-02 (2,8,9) 1.242074E-07 (2,9,10) 2.899106E-02 (3,8,10) 14.3277
(2,9,1): (1,9,1) -0.289201 (2,8,1) -2.899268E-02 (2,9,2) -8.854499E-10 (2,10,1) 1.257276E-02 (3,9,1) 0.305608
(2,9,2): (1,9,2) -0.289193 (2,8,2) -2.899272E-02 (2,9,1) 8.854499E-10 (2,9,3) -4.127383E-07 (2,10,2) 1.257277E-02 (3,9,2) 0.305588
(2,9,3): (1,9,3) -0.289168 (2,8,3) -2.899258E-02 (2,9,2) 4.127383E-07 (2,9,4) -6.172592E-07 (2,10,3) 1.257278E-02 (3,9,3) 0.305586
(2,9,4): (1,9,4) -0.289148 (2,8,4) -2.899236E-02 (2,9,3) 6.172592E-07 (2,9,5) -7.422136E-07 (2,10,4) 1.257273E-02 (3,9,4) 0.305573
(2,9,5): (1,9,5) -0.289128 (2,8,5) -2.899208E-02 (2,9,4) 7.422136E-07 (2,9,6) -7.511828E-07 (2,10,5) 1.257269E-02 (3,9,5) 0.305565
(2,9,6): (1,9,6) -0.289106 (2,8,6) -2.899181E-02 (2,9,5) 7.511828E-07 (2,9,7) -6.872542E-07 (2,10,6) 1.257264E-02 (3,9,6) 0.305553
(2,9,7): (1,9,7) -0.289089 (2,8,7) -2.899155E-02 (2,9,6) 6.872542E-07 (2,9,8) -5.800870E-07 (2,10,7) 1.257259E-02 (3,9,7) 0.305538
(2,9,8): (1,9,8) -0.289073 (2,8,8) -2.899132E-02 (2,9,7) 5.800870E-07 (2,9,9) -4.275296E-07 (2,10,8) 1.257256E-02 (3,9,8) 0.305529
(2,9,9): (1,9,9) -0.289058 (2,8,9) -2.899114E-02 (2,9,8) 4.275296E-07 (2,9,10) -2.012632E-07 (2,10,9) 1.257251E-02 (3,9,9) 0.305523
(2,9,10): (1,9,10) -0.289058 (2,8,10) -2.899106E-02 (2,9,9) 2.012632E-07 (2,10,10) 1.257244E-02 (3,9,10) 0.305490
(2,10,1): (1,10,1) 1.11843 (2,9,1) -1.257276E-02 (2,10,2) 1.262851E-08 (2,11,1) 9.271092E-03 (3,10,1) -1.11523
(2,10,2): (1,10,2) 1.11846 (2,9,2) -1.257277E-02 (2,10,1) -1.262851E-08 (2,10,3) -4.007824E-07 (2,11,2) 9.271143E-03 (3,10,2) -1.11524
(2,10,3): (1,10,3) 1.11847 (2,9,3) -1.257278E-02 (2,10,2) 4.007824E-07 (2,10,4) -6.696260E-07 (2,11,3) 9.271096E-03 (3,10,3) -1.11524
(2,10,4): (1,10,4) 1.11846 (2,9,4) -1.257273E-02 (2,10,3) 6.696260E-07 (2,10,5) -7.840085E-07 (2,11,4) 9.271119E-03 (3,10,4) -1.11522
(2,10,5): (1,10,5) 1.11846 (2,9,5) -1.257269E-02 (2,10,4) 7.840085E-07 (2,10,6) -7.949001E-07 (2,11,5) 9.271113E-03 (3,10,5) -1.11520
(2,10,6): (1,10,6) 1.11846 (2,9,6) -1.257264E-02 (2,10,5) 7.949001E-07 (2,10,7) -7.379169E-07 (2,11,6) 9.271101E-03 (3,10,6) -1.11519
(2,10,7): (1,10,7) 1.11845 (2,9,7) -1.257259E-02 (2,10,6) 7.379169E-07 (2,10,8) -6.093633E-07 (2,11,7) 9.271107E-03 (3,10,7) -1.11518
(2,10,8): (1,10,8) 1.11845 (2,9,8) -1.257256E-02 (2,10,7) 6.093633E-07 (2,10,9) -4.856741E-07 (2,11,8) 9.271076E-03 (3,10,8) -1.11518
(2,10,9): (1,10,9) 1.11845 (2,9,9) -1.257251E-02 (2,10,8) 4.856741E-07 (2,10,10) -2.712010E-07 (2,11,9) 9.271072E-03 (3,10,9) -1.11516
(2,10,10): (1,10,10) 1.11845 (2,9,10) -1.257244E-02 (2,10,9) 2.712010E-07 (2,11,10) 9.270988E-03 (3,10,10) -1.11517
(2,11,1): (1,11,1) 1.26088 (2,10,1) -9.271092E-03 (2,11,2) 6.380191E-08 (2,12,1) 7.298511E-03 (3,11,1) -1.25902
(2,11,2): (1,11,2) 1.26092 (2,10,2) -9.271143E-03 (2,11,1) -6.380191E-08 (2,11,3) -4.477004E-07 (2,12,2) 7.298452E-03 (3,11,2) -1.25906
(2,11,3): (1,11,3) 1.26092 (2,10,3) -9.271096E-03 (2,11,2) 4.477004E-07 (2,11,4) -6.460544E-07 (2,12,3) 7.298471E-03 (3,11,3) -1.25904
(2,11,4): (1,11,4) 1.26092 (2,10,4) -9.271119E-03 (2,11,3) 6.460544E-07 (2,11,5) -7.907535E-07 (2,12,4) 7.298458E-03 (3,11,4) -1.25902
(2,11,5): (1,11,5) 1.26091 (2,10,5) -9.271113E-03 (2,11,4) 7.907535E-07 (2,11,6) -8.063272E-07 (2,12,5) 7.298470E-03 (3,11,5) -1.25900
(2,11,6): (1,11,6) 1.26090 (2,10,6) -9.271101E-03 (2,11,5) 8.063272E-07 (2,11,7) -7.323912E-07 (2,12,6) 7.298480E-03 (3,11,6) -1.25898
(2,11,7): (1,11,7) 1.26090 (2,10,7) -9.271107E-03 (2,11,6) 7.323912E-07 (2,11,8) -6.401881E-07 (2,12,7) 7.298474E-03 (3,11,7) -1.25898
(2,11,8): (1,11,8) 1.26089 (2,10,8) -9.271076E-03 (2,11,7) 6.401881E-07 (2,11,9) -4.897361E-07 (2,12,8) 7.298495E-03 (3,11,8) -1.25897
(2,11,9): (1,11,9) 1.26089 (2,10,9) -9.271072E-03 (2,11,8) 4.897361E-07 (2,11,10) -3.555354E-07 (2,12,9) 7.298471E-03 (3,11,9) -1.25897
(2,11,10): (1,11,10) 1.26089 (2,10,10) -9.270988E-03 (2,11,9) 3.555354E-07 (2,12,10) 7.298466E-03 (3,11,10) -1.25894
(2,12,1): (1,12,1) 1.27480 (2,11,1) -7.298511E-03 (2,12,2) 4.682217E-09 (2,13,1) 5.461711E-03 (3,12,1) -1.27308
(2,12,2): (1,12,2) 1.27483 (2,11,2) -7.298452E-03 (2,12,1) -4.682217E-09 (2,12,3) -4.287694E-07 (2,13,2) 5.461749E-03 (3,12,2) -1.27309
(2,12,3): (1,12,3) 1.27484 (2,11,3) -7.298471E-03 (2,12,2) 4.287694E-07 (2,12,4) -6.591946E-07 (2,13,3) 5.461718E-03 (3,12,3) -1.27309
(2,12,4): (1,12,4) 1.27483 (2,11,4) -7.298458E-03 (2,12,3) 6.591946E-07 (2,12,5) -7.783904E-07 (2,13,4) 5.461732E-03 (3,12,4) -1.27307
(2,12,5): (1,12,5) 1.27482 (2,11,5) -7.298470E-03 (2,12,4) 7.783904E-07 (2,12,6) -7.968092E-07 (2,13,5) 5.461750E-03 (3,12,5) -1.27305
(2,12,6): (1,12,6) 1.27482 (2,11,6) -7.298480E-03 (2,12,5) 7.968092E-07 (2,12,7) -7.378435E-07 (2,13,6) 5.461763E-03 (3,12,6) -1.27303
(2,12,7): (1,12,7) 1.27481 (2,11,7) -7.298474E-03 (2,12,6) 7.378435E-07 (2,12,8) -6.200532E-07 (2,13,7) 5.461787E-03 (3,12,7) -1.27302
(2,12,8): (1,12,8) 1.27481 (2,11,8) -7.298495E-03 (2,12,7) 6.200532E-07 (2,12,9) -5.137893E-07 (2,13,8) 5.461786E-03 (3,12,8) -1.27302
(2,12,9): (1,12,9) 1.27481 (2,11,9) -7.298471E-03 (2,12,8) 5.137893E-07 (2,12,10) -3.603802E-07 (2,13,9) 5.461805E-03 (3,12,9) -1.27302
(2,12,10): (1,12,10) 1.27481 (2,11,10) -7.298466E-03 (2,12,9) 3.603802E-07 (2,13,10) 5.461786E-03 (3,12,10) -1.27300
(2,13,1): (1,13,1) 1.27575 (2,12,1) -5.461711E-03 (2,13,2) 4.197329E-08 (2,14,1) 3.639636E-03 (3,13,1) -1.27402
(2,13,2): (1,13,2) 1.27578 (2,12,2) -5.461749E-03 (2,13,1) -4.197329E-08 (2,13,3) -4.593607E-07 (2,14,2) 3.639583E-03 (3,13,2) -1.27405
(2,13,3): (1,13,3) 1.27578 (2,12,3) -5.461718E-03 (2,13,2) 4.593607E-07 (2,13,4) -6.457729E-07 (2,14,3) 3.639594E-03 (3,13,3) -1.27404
(2,13,4): (1,13,4) 1.27578 (2,12,4) -5.461732E-03 (2,13,3) 6.457729E-07 (2,13,5) -7.601936E-07 (2,14,4) 3.639592E-03 (3,13,4) -1.27403
(2,13,5): (1,13,5) 1.27577 (2,12,5) -5.461750E-03 (2,13,4) 7.601936E-07 (2,13,6) -7.835084E-07 (2,14,5) 3.639610E-03 (3,13,5) -1.27401
(2,13,6): (1,13,6) 1.27576 (2,12,6) -5.461763E-03 (2,13,5) 7.835084E-07 (2,13,7) -7.135914E-07 (2,14,6) 3.639633E-03 (3,13,6) -1.27399
(2,13,7): (1,13,7) 1.27576 (2,12,7) -5.461787E-03 (2,13,6) 7.135914E-07 (2,13,8) -6.211235E-07 (2,14,7) 3.639647E-03 (3,13,7) -1.27398
(2,13,8): (1,13,8) 1.27575 (2,12,8) -5.461786E-03 (2,13,7) 6.211235E-07 (2,13,9) -4.945315E-07 (2,14,8) 3.639671E-03 (3,13,8) -1.27398
(2,13,9): (1,13,9) 1.27575 (2,12,9) -5.461805E-03 (2,13,8) 4.945315E-07 (2,13,10) -3.794490E-07 (2,14,9) 3.639670E-03 (3,13,9) -1.27398
(2,13,10): (1,13,10) 1.27576 (2,12,10) -5.461786E-03 (2,13,9) 3.794490E-07 (2,14,10) 3.639673E-03 (3,13,10) -1.27396
(2,14,1): (1,14,1) 1.27554 (2,13,1) -3.639636E-03 (2,14,2) -1.090624E-08 (2,15,1) 1.819431E-03 (3,14,1) -1.27381
(2,14,2): (1,14,2) 1.27556 (2,13,2) -3.639583E-03 (2,14,1) 1.090624E-08 (2,14,3) -4.483219E-07 (2,15,2) 1.819333E-03 (3,14,2) -1.27382
(2,14,3): (1,14,3) 1.27556 (2,13,3) -3.639594E-03 (2,14,2) 4.483219E-07 (2,14,4) -6.475516E-07 (2,15,3) 1.819352E-03 (3,14,3) -1.27382
(2,14,4): (1,14,4) 1.27556 (2,13,4) -3.639592E-03 (2,14,3) 6.475516E-07 (2,14,5) -7.424881E-07 (2,15,4) 1.819384E-03 (3,14,4) -1.27380
(2,14,5): (1,14,5) 1.27555 (2,13,5) -3.639610E-03 (2,14,4) 7.424881E-07 (2,14,6) -7.600938E-07 (2,15,5) 1.819419E-03 (3,14,5) -1.27379
(2,14,6): (1,14,6) 1.27555 (2,13,6) -3.639633E-03 (2,14,5) 7.600938E-07 (2,14,7) -6.998658E-07 (2,15,6) 1.819453E-03 (3,14,6) -1.27377
(2,14,7): (1,14,7) 1.27554 (2,13,7) -3.639647E-03 (2,14,6) 6.998658E-07 (2,14,8) -5.965190E-07 (2,15,7) 1.819479E-03 (3,14,7) -1.27376
(2,14,8): (1,14,8) 1.27554 (2,13,8) -3.639671E-03 (2,14,7) 5.965190E-07 (2,14,9) -4.960596E-07 (2,15,8) 1.819491E-03 (3,14,8) -1.27376
(2,14,9): (1,14,9) 1.27554 (2,13,9) -3.639670E-03 (2,14,8) 4.960596E-07 (2,14,10) -3.766338E-07 (2,15,9) 1.819498E-03 (3,14,9) -1.27376
(2,14,10): (1,14,10) 1.27555 (2,13,10) -3.639673E-03 (2,14,9) 3.766338E-07 (2,15,10) 1.819508E-03 (3,14,10) -1.27375
(2,15,1): (1,15,1) 1.27537 (2,14,1) -1.819431E-03 (2,15,2) -1.090487E-07 (3,15,1) -1.27360
(2,15,2): (1,15,2) 1.27542 (2,14,2) -1.819333E-03 (2,15,1) 1.090487E-07 (2,15,3) -4.290771E-07 (3,15,2) -1.27364
(2,15,3): (1,15,3) 1.27541 (2,14,3) -1.819352E-03 (2,15,2) 4.290771E-07 (2,15,4) -6.159483E-07 (3,15,3) -1.27363
(2,15,4): (1,15,4) 1.27541 (2,14,4) -1.819384E-03 (2,15,3) 6.159483E-07 (2,15,5) -7.074439E-07 (3,15,4) -1.27361
(2,15,5): (1,15,5) 1.27540 (2,14,5) -1.819419E-03 (2,15,4) 7.074439E-07 (2,15,6) -7.259164E-07 (3,15,5) -1.27360
(2,15,6): (1,15,6) 1.27539 (2,14,6) -1.819453E-03 (2,15,5) 7.259164E-07 (2,15,7) -6.738242E-07 (3,15,6) -1.27359
(2,15,7): (1,15,7) 1.27538 (2,14,7) -1.819479E-03 (2,15,6) 6.738242E-07 (2,15,8) -5.844560E-07 (3,15,7) -1.27358
(2,15,8): (1,15,8) 1.27538 (2,14,8) -1.819491E-03 (2,15,7) 5.844560E-07 (2,15,9) -4.887759E-07 (3,15,8) -1.27358
(2,15,9): (1,15,9) 1.27538 (2,14,9) -1.819498E-03 (2,15,8) 4.887759E-07 (2,15,10) -3.673785E-07 (3,15,9) -1.27358
(2,15,10): (1,15,10) 1.27539 (2,14,10) -1.819508E-03 (2,15,9) 3.673785E-07 (3,15,10) -1.27357
(3,1,1): (2,1,1) 1.27362 (3,1,2) -2.515240E-04 (3,2,1) -1.27337
(3,1,2): (2,1,2) 1.27362 (3,1,1) 2.515240E-04 (3,1,3) -9.246464E-04 (3,2,2) -1.27345
(3,1,3): (2,1,3) 1.27359 (3,1,2) 9.246464E-04 (3,1,4) -1.382114E-03 (3,2,3) -1.27349
(3,1,4): (2,1,4) 1.27354 (3,1,3) 1.382114E-03 (3,1,5) -1.642856E-03 (3,2,4) -1.27352
(3,1,5): (2,1,5) 1.27348 (3,1,4) 1.642856E-03 (3,1,6) -1.695272E-03 (3,2,5) -1.27355
(3,1,6): (2,1,6) 1.27342 (3,1,5) 1.695272E-03 (3,1,7) -1.579231E-03 (3,2,6) -1.27356
(3,1,7): (2,1,7) 1.27337 (3,1,6) 1.579231E-03 (3,1,8) -1.286092E-03 (3,2,7) -1.27354
(3,1,8): (2,1,8) 1.27333 (3,1,7) 1.286092E-03 (3,1,9) -8.643005E-04 (3,2,8) -1.27349
(3,1,9): (2,1,9) 1.27331 (3,1,8) 8.643005E-04 (3,1,10) -3.806531E-04 (3,2,9) -1.27342
(3,1,10): (2,1,10) 1.27337 (3,1,9) 3.806531E-04 (3,2,10) -1.27330
(3,2,1): (2,2,1) 1.27381 (3,1,1) 1.27337 (3,2,2) -3.308823E-04 (3,3,1) -2.54729
(3,2,2): (2,2,2) 1.27382 (3,1,2) 1.27345 (3,2,1) 3.308823E-04 (3,2,3) -9.646273E-04 (3,3,2) -2.54730
(3,2,3): (2,2,3) 1.27378 (3,1,3) 1.27349 (3,2,2) 9.646273E-04 (3,2,4) -1.412252E-03 (3,3,3) -2.54727
(3,2,4): (2,2,4) 1.27372 (3,1,4) 1.27352 (3,2,3) 1.412252E-03 (3,2,5) -1.677690E-03 (3,3,4) -2.54720
(3,2,5): (2,2,5) 1.27366 (3,1,5) 1.27355 (3,2,4) 1.677690E-03 (3,2,6) -1.708366E-03 (3,3,5) -2.54712
(3,2,6): (2,2,6) 1.27359 (3,1,6) 1.27356 (3,2,5) 1.708366E-03 (3,2,7) -1.556922E-03 (3,3,6) -2.54705
(3,2,7): (2,2,7) 1.27353 (3,1,7) 1.27354 (3,2,6) 1.556922E-03 (3,2,8) -1.235582E-03 (3,3,7) -2.54698
(3,2,8): (2,2,8) 1.27348 (3,1,8) 1.27349 (3,2,7) 1.235582E-03 (3,2,9) -7.902550E-04 (3,3,8) -2.54692
(3,2,9): (2,2,9) 1.27345 (3,1,9) 1.27342 (3,2,8) 7.902550E-04 (3,2,10) -2.678439E-04 (3,3,9) -2.54684
(3,2,10): (2,2,10) 1.27349 (3,1,10) 1.27330 (3,2,9) 2.678439E-04 (3,3,10) -2.54679
(3,3,1): (2,3,1) 1.27403 (3,2,1) 2.54729 (3,3,2) -3.411765E-04 (3,4,1) -3.82134
(3,3,2): (2,3,2) 1.27405 (3,2,2) 2.54730 (3,3,1) 3.411765E-04 (3,3,3) -9.348804E-04 (3,4,2) -3.82132
(3,3,3): (2,3,3) 1.27400 (3,2,3) 2.54727 (3,3,2) 9.348804E-04 (3,3,4) -1.341171E-03 (3,4,3) -3.82126
(3,3,4): (2,3,4) 1.27395 (3,2,4) 2.54720 (3,3,3) 1.341171E-03 (3,3,5) -1.600034E-03 (3,4,4) -3.82115
(3,3,5): (2,3,5) 1.27388 (3,2,5) 2.54712 (3,3,4) 1.600034E-03 (3,3,6) -1.637154E-03 (3,4,5) -3.82100
(3,3,6): (2,3,6) 1.27382 (3,2,6) 2.54705 (3,3,5) 1.637154E-03 (3,3,7) -1.487688E-03 (3,4,6) -3.82085
(3,3,7): (2,3,7) 1.27376 (3,2,7) 2.54698 (3,3,6) 1.487688E-03 (3,3,8) -1.167720E-03 (3,4,7) -3.82071
(3,3,8): (2,3,8) 1.27371 (3,2,8) 2.54692 (3,3,7) 1.167720E-03 (3,3,9) -7.141535E-04 (3,4,8) -3.82060
(3,3,9): (2,3,9) 1.27369 (3,2,9) 2.54684 (3,3,8) 7.141535E-04 (3,3,10) -2.171522E-04 (3,4,9) -3.82054
(3,3,10): (2,3,10) 1.27371 (3,2,10) 2.54679 (3,3,9) 2.171522E-04 (3,4,10) -3.82052
(3,4,1): (2,4,1) 1.27308 (3,3,1) 3.82134 (3,4,2) -3.173765E-04 (3,5,1) -5.09448
(3,4,2): (2,4,2) 1.27309 (3,3,2) 3.82132 (3,4,1) 3.173765E-04 (3,4,3) -8.757296E-04 (3,5,2) -5.09443
(3,4,3): (2,4,3) 1.27306 (3,3,3) 3.82126 (3,4,2) 8.757296E-04 (3,4,4) -1.229896E-03 (3,5,3) -5.09433
(3,4,4): (2,4,4) 1.27300 (3,3,4) 3.82115 (3,4,3) 1.229896E-03 (3,4,5) -1.451574E-03 (3,5,4) -5.09419
(3,4,5): (2,4,5) 1.27294 (3,3,5) 3.82100 (3,4,4) 1.451574E-03 (3,4,6) -1.482543E-03 (3,5,5) -5.09401
(3,4,6): (2,4,6) 1.27288 (3,3,6) 3.82085 (3,4,5) 1.482543E-03 (3,4,7) -1.346326E-03 (3,5,6) -5.09381
(3,4,7): (2,4,7) 1.27282 (3,3,7) 3.82071 (3,4,6) 1.346326E-03 (3,4,8) -1.062256E-03 (3,5,7) -5.09363
(3,4,8): (2,4,8) 1.27280 (3,3,8) 3.82060 (3,4,7) 1.062256E-03 (3,4,9) -6.552331E-04 (3,5,8) -5.09348
(3,4,9): (2,4,9) 1.27276 (3,3,9) 3.82054 (3,4,8) 6.552331E-04 (3,4,10) -1.941754E-04 (3,5,9) -5.09340
(3,4,10): (2,4,10) 1.27279 (3,3,10) 3.82052 (3,4,9) 1.941754E-04 (3,5,10) -5.09338
(3,5,1): (2,5,1) 1.25900 (3,4,1) 5.09448 (3,5,2) -2.635275E-04 (3,6,1) -6.35359
(3,5,2): (2,5,2) 1.25903 (3,4,2) 5.09443 (3,5,1) 2.635275E-04 (3,5,3) -7.813851E-04 (3,6,2) -6.35352
(3,5,3): (2,5,3) 1.25900 (3,4,3) 5.09433 (3,5,2) 7.813851E-04 (3,5,4) -1.085114E-03 (3,6,3) -6.35339
(3,5,4): (2,5,4) 1.25896 (3,4,4) 5.09419 (3,5,3) 1.085114E-03 (3,5,5) -1.270705E-03 (3,6,4) -6.35320
(3,5,5): (2,5,5) 1.25890 (3,4,5) 5.09401 (3,5,4) 1.270705E-03 (3,5,6) -1.288973E-03 (3,6,5) -6.35297
(3,5,6): (2,5,6) 1.25885 (3,4,6) 5.09381 (3,5,5) 1.288973E-03 (3,5,7) -1.159821E-03 (3,6,6) -6.35275
(3,5,7): (2,5,7) 1.25881 (3,4,7) 5.09363 (3,5,6) 1.159821E-03 (3,5,8) -9.168502E-04 (3,6,7) -6.35254
(3,5,8): (2,5,8) 1.25877 (3,4,8) 5.09348 (3,5,7) 9.168502E-04 (3,5,9) -5.708406E-04 (3,6,8) -6.35237
(3,5,9): (2,5,9) 1.25877 (3,4,9) 5.09340 (3,5,8) 5.708406E-04 (3,5,10) -1.829847E-04 (3,6,9) -6.35228
(3,5,10): (2,5,10) 1.25877 (3,4,10) 5.09338 (3,5,9) 1.829847E-04 (3,6,10) -6.35226
(3,6,1): (2,6,1) 1.11518 (3,5,1) 6.35359 (3,6,2) -1.992687E-04 (3,7,1) -7.46892
(3,6,2): (2,6,2) 1.11520 (3,5,2) 6.35352 (3,6,1) 1.992687E-04 (3,6,3) -6.452656E-04 (3,7,2) -7.46882
(3,6,3): (2,6,3) 1.11518 (3,5,3) 6.35339 (3,6,2) 6.452656E-04 (3,6,4) -8.989196E-04 (3,7,3) -7.46866
(3,6,4): (2,6,4) 1.11515 (3,5,4) 6.35320 (3,6,3) 8.989196E-04 (3,6,5) -1.045400E-03 (3,7,4) -7.46844
(3,6,5): (2,6,5) 1.11511 (3,5,5) 6.35297 (3,6,4) 1.045400E-03 (3,6,6) -1.059938E-03 (3,7,5) -7.46818
(3,6,6): (2,6,6) 1.11507 (3,5,6) 6.35275 (3,6,5) 1.059938E-03 (3,6,7) -9.517589E-04 (3,7,6) -7.46793
(3,6,7): (2,6,7) 1.11504 (3,5,7) 6.35254 (3,6,6) 9.517589E-04 (3,6,8) -7.518201E-04 (3,7,7) -7.46769
(3,6,8): (2,6,8) 1.11502 (3,5,8) 6.35237 (3,6,7) 7.518201E-04 (3,6,9) -4.820137E-04 (3,7,8) -7.46752
(3,6,9): (2,6,9) 1.11500 (3,5,9) 6.35228 (3,6,8) 4.820137E-04 (3,6,10) -1.625628E-04 (3,7,9) -7.46741
(3,6,10): (2,6,10) 1.11502 (3,5,10) 6.35226 (3,6,9) 1.625628E-04 (3,7,10) -7.46737
(3,7,1): (2,7,1) -0.305532 (3,6,1) 7.46892 (3,7,2) -1.071468E-04 (3,8,1) -7.16357
(3,7,2): (2,7,2) -0.305540 (3,6,2) 7.46882 (3,7,1) 1.071468E-04 (3,7,3) -4.771941E-04 (3,8,2) -7.16352
(3,7,3): (2,7,3) -0.305541 (3,6,3) 7.46866 (3,7,2) 4.771941E-04 (3,7,4) -6.804819E-04 (3,8,3) -7.16335
(3,7,4): (2,7,4) -0.305540 (3,6,4) 7.46844 (3,7,3) 6.804819E-04 (3,7,5) -7.919593E-04 (3,8,4) -7.16313
(3,7,5): (2,7,5) -0.305542 (3,6,5) 7.46818 (3,7,4) 7.919593E-04 (3,7,6) -8.017110E-04 (3,8,5) -7.16289
(3,7,6): (2,7,6) -0.305543 (3,6,6) 7.46793 (3,7,5) 8.017110E-04 (3,7,7) -7.196404E-04 (3,8,6) -7.16264
(3,7,7): (2,7,7) -0.305538 (3,6,7) 7.46769 (3,7,6) 7.196404E-04 (3,7,8) -5.727830E-04 (3,8,7) -7.16242
(3,7,8): (2,7,8) -0.305538 (3,6,8) 7.46752 (3,7,7) 5.727830E-04 (3,7,9) -3.773991E-04 (3,8,8) -7.16226
(3,7,9): (2,7,9) -0.305537 (3,6,9) 7.46741 (3,7,8) 3.773991E-04 (3,7,10) -1.265422E-04 (3,8,9) -7.16216
(3,7,10): (2,7,10) -0.305478 (3,6,10) 7.46737 (3,7,9) 1.265422E-04 (3,8,10) -7.16215
(3,8,1): (2,8,1) -14.3291 (3,7,1) 7.16357 (3,8,2) -5.779379E-05 (3,9,1) 7.16538
(3,8,2): (2,8,2) -14.3291 (3,7,2) 7.16352 (3,8,1) 5.779379E-05 (3,8,3) -3.109204E-04 (3,9,2) 7.16542
(3,8,3): (2,8,3) -14.3289 (3,7,3) 7.16335 (3,8,2) 3.109204E-04 (3,8,4) -4.624022E-04 (3,9,3) 7.16544
(3,8,4): (2,8,4) -14.3287 (3,7,4) 7.16313 (3,8,3) 4.624022E-04 (3,8,5) -5.444372E-04 (3,9,4) 7.16545
(3,8,5): (2,8,5) -14.3285 (3,7,5) 7.16289 (3,8,4) 5.444372E-04 (3,8,6) -5.541318E-04 (3,9,5) 7.16547
(3,8,6): (2,8,6) -14.3283 (3,7,6) 7.16264 (3,8,5) 5.541318E-04 (3,8,7) -5.041133E-04 (3,9,6) 7.16549
(3,8,7): (2,8,7) -14.3281 (3,7,7) 7.16242 (3,8,6) 5.041133E-04 (3,8,8) -4.082542E-04 (3,9,7) 7.16550
(3,8,8): (2,8,8) -14.3279 (3,7,8) 7.16226 (3,8,7) 4.082542E-04 (3,8,9) -2.815041E-04 (3,9,8) 7.16549
(3,8,9): (2,8,9) -14.3278 (3,7,9) 7.16216 (3,8,8) 2.815041E-04 (3,8,10) -1.130942E-04 (3,9,9) 7.16547
(3,8,10): (2,8,10) -14.3277 (3,7,10) 7.16215 (3,8,9) 1.130942E-04 (3,9,10) 7.16541
(3,9,1): (2,9,1) -0.305608 (3,8,1) -7.16538 (3,9,2) -1.870599E-05 (3,10,1) 7.47067
(3,9,2): (2,9,2) -0.305588 (3,8,2) -7.16542 (3,9,1) 1.870599E-05 (3,9,3) -2.914218E-04 (3,10,2) 7.47069
(3,9,3): (2,9,3) -0.305586 (3,8,3) -7.16544 (3,9,2) 2.914218E-04 (3,9,4) -4.436494E-04 (3,10,3) 7.47070
(3,9,4): (2,9,4) -0.305573 (3,8,4) -7.16545 (3,9,3) 4.436494E-04 (3,9,5) -5.275999E-04 (3,10,4) 7.47069
(3,9,5): (2,9,5) -0.305565 (3,8,5) -7.16547 (3,9,4) 5.275999E-04 (3,9,6) -5.363985E-04 (3,10,5) 7.47069
(3,9,6): (2,9,6) -0.305553 (3,8,6) -7.16549 (3,9,5) 5.363985E-04 (3,9,7) -4.951515E-04 (3,10,6) 7.47068
(3,9,7): (2,9,7) -0.305538 (3,8,7) -7.16550 (3,9,6) 4.951515E-04 (3,9,8) -4.151937E-04 (3,10,7) 7.47067
(3,9,8): (2,9,8) -0.305529 (3,8,8) -7.16549 (3,9,7) 4.151937E-04 (3,9,9) -3.045880E-04 (3,10,8) 7.47066
(3,9,9): (2,9,9) -0.305523 (3,8,9) -7.16547 (3,9,8) 3.045880E-04 (3,9,10) -1.717617E-04 (3,10,9) 7.47064
(3,9,10): (2,9,10) -0.305490 (3,8,10) -7.16541 (3,9,9) 1.717617E-04 (3,10,10) 7.47061
(3,10,1): (2,10,1) 1.11523 (3,9,1) -7.47067 (3,10,2) 5.669193E-06 (3,11,1) 6.35515
(3,10,2): (2,10,2) 1.11524 (3,9,2) -7.47069 (3,10,1) -5.669193E-06 (3,10,3) -2.866439E-04 (3,11,2) 6.35515
(3,10,3): (2,10,3) 1.11524 (3,9,3) -7.47070 (3,10,2) 2.866439E-04 (3,10,4) -4.455575E-04 (3,11,3) 6.35514
(3,10,4): (2,10,4) 1.11522 (3,9,4) -7.47069 (3,10,3) 4.455575E-04 (3,10,5) -5.370427E-04 (3,11,4) 6.35515
(3,10,5): (2,10,5) 1.11520 (3,9,5) -7.47069 (3,10,4) 5.370427E-04 (3,10,6) -5.455796E-04 (3,11,5) 6.35515
(3,10,6): (2,10,6) 1.11519 (3,9,6) -7.47068 (3,10,5) 5.455796E-04 (3,10,7) -5.035409E-04 (3,11,6) 6.35515
(3,10,7): (2,10,7) 1.11518 (3,9,7) -7.47067 (3,10,6) 5.035409E-04 (3,10,8) -4.269594E-04 (3,11,7) 6.35514
(3,10,8): (2,10,8) 1.11518 (3,9,8) -7.47066 (3,10,7) 4.269594E-04 (3,10,9) -3.245589E-04 (3,11,8) 6.35513
(3,10,9): (2,10,9) 1.11516 (3,9,9) -7.47064 (3,10,8) 3.245589E-04 (3,10,10) -1.959270E-04 (3,11,9) 6.35511
(3,10,10): (2,10,10) 1.11517 (3,9,10) -7.47061 (3,10,9) 1.959270E-04 (3,11,10) 6.35509
(3,11,1): (2,11,1) 1.25902 (3,10,1) -6.35515 (3,11,2) 5.141528E-06 (3,12,1) 5.09579
(3,11,2): (2,11,2) 1.25906 (3,10,2) -6.35515 (3,11,1) -5.141528E-06 (3,11,3) -2.926256E-04 (3,12,2) 5.09578
(3,11,3): (2,11,3) 1.25904 (3,10,3) -6.35514 (3,11,2) 2.926256E-04 (3,11,4) -4.378134E-04 (3,12,3) 5.09577
(3,11,4): (2,11,4) 1.25902 (3,10,4) -6.35515 (3,11,3) 4.378134E-04 (3,11,5) -5.347434E-04 (3,12,4) 5.09577
(3,11,5): (2,11,5) 1.25900 (3,10,5) -6.35515 (3,11,4) 5.347434E-04 (3,11,6) -5.491145E-04 (3,12,5) 5.09578
(3,11,6): (2,11,6) 1.25898 (3,10,6) -6.35515 (3,11,5) 5.491145E-04 (3,11,7) -5.070379E-04 (3,12,6) 5.09578
(3,11,7): (2,11,7) 1.25898 (3,10,7) -6.35514 (3,11,6) 5.070379E-04 (3,11,8) -4.386598E-04 (3,12,7) 5.09579
(3,11,8): (2,11,8) 1.25897 (3,10,8) -6.35513 (3,11,7) 4.386598E-04 (3,11,9) -3.427330E-04 (3,12,8) 5.09579
(3,11,9): (2,11,9) 1.25897 (3,10,9) -6.35511 (3,11,8) 3.427330E-04 (3,11,10) -2.223725E-04 (3,12,9) 5.09578
(3,11,10): (2,11,10) 1.25894 (3,10,10) -6.35509 (3,11,9) 2.223725E-04 (3,12,10) 5.09576
(3,12,1): (2,12,1) 1.27308 (3,11,1) -5.09579 (3,12,2) -1.673860E-06 (3,13,1) 3.82232
(3,12,2): (2,12,2) 1.27309 (3,11,2) -5.09578 (3,12,1) 1.673860E-06 (3,12,3) -3.031444E-04 (3,13,2) 3.82232
(3,12,3): (2,12,3) 1.27309 (3,11,3) -5.09577 (3,12,2) 3.031444E-04 (3,12,4) -4.381332E-04 (3,13,3) 3.82231
(3,12,4): (2,12,4) 1.27307 (3,11,4) -5.09577 (3,12,3) 4.381332E-04 (3,12,5) -5.268973E-04 (3,13,4) 3.82231
(3,12,5): (2,12,5) 1.27305 (3,11,5) -5.09578 (3,12,4) 5.268973E-04 (3,12,6) -5.452633E-04 (3,13,5) 3.82233
(3,12,6): (2,12,6) 1.27303 (3,11,6) -5.09578 (3,12,5) 5.452633E-04 (3,12,7) -5.032547E-04 (3,13,6) 3.82234
(3,12,7): (2,12,7) 1.27302 (3,11,7) -5.09579 (3,12,6) 5.032547E-04 (3,12,8) -4.367852E-04 (3,13,7) 3.82235
(3,12,8): (2,12,8) 1.27302 (3,11,8) -5.09579 (3,12,7) 4.367852E-04 (3,12,9) -3.525422E-04 (3,13,8) 3.82236
(3,12,9): (2,12,9) 1.27302 (3,11,9) -5.09578 (3,12,8) 3.525422E-04 (3,12,10) -2.401579E-04 (3,13,9) 3.82236
(3,12,10): (2,12,10) 1.27300 (3,11,10) -5.09576 (3,12,9) 2.401579E-04 (3,13,10) 3.82235
(3,13,1): (2,13,1) 1.27402 (3,12,1) -3.82232 (3,13,2) 7.017956E-07 (3,14,1) 2.54794
(3,13,2): (2,13,2) 1.27405 (3,12,2) -3.82232 (3,13,1) -7.017956E-07 (3,13,3) -3.107927E-04 (3,14,2) 2.54792
(3,13,3): (2,13,3) 1.27404 (3,12,3) -3.82231 (3,13,2) 3.107927E-04 (3,13,4) -4.374285E-04 (3,14,3) 2.54792
(3,13,4): (2,13,4) 1.27403 (3,12,4) -3.82231 (3,13,3) 4.374285E-04 (3,13,5) -5.133098E-04 (3,14,4) 2.54792
(3,13,5): (2,13,5) 1.27401 (3,12,5) -3.82233 (3,13,4) 5.133098E-04 (3,13,6) -5.336538E-04 (3,14,5) 2.54793
(3,13,6): (2,13,6) 1.27399 (3,12,6) -3.82234 (3,13,5) 5.336538E-04 (3,13,7) -4.923853E-04 (3,14,6) 2.54795
(3,13,7): (2,13,7) 1.27398 (3,12,7) -3.82235 (3,13,6) 4.923853E-04 (3,13,8) -4.283674E-04 (3,14,7) 2.54796
(3,13,8): (2,13,8) 1.27398 (3,12,8) -3.82236 (3,13,7) 4.283674E-04 (3,13,9) -3.496730E-04 (3,14,8) 2.54797
(3,13,9): (2,13,9) 1.27398 (3,12,9) -3.82236 (3,13,8) 3.496730E-04 (3,13,10) -2.493948E-04 (3,14,9) 2.54797
(3,13,10): (2,13,10) 1.27396 (3,12,10) -3.82235 (3,13,9) 2.493948E-04 (3,14,10) 2.54797
(3,14,1): (2,14,1) 1.27381 (3,13,1) -2.54794 (3,14,2) -1.772654E-05 (3,15,1) 1.27380
(3,14,2): (2,14,2) 1.27382 (3,13,2) -2.54792 (3,14,1) 1.772654E-05 (3,14,3) -3.091807E-04 (3,15,2) 1.27371
(3,14,3): (2,14,3) 1.27382 (3,13,3) -2.54792 (3,14,2) 3.091807E-04 (3,14,4) -4.388341E-04 (3,15,3) 1.27373
(3,14,4): (2,14,4) 1.27380 (3,13,4) -2.54792 (3,14,3) 4.388341E-04 (3,14,5) -5.030086E-04 (3,15,4) 1.27375
(3,14,5): (2,14,5) 1.27379 (3,13,5) -2.54793 (3,14,4) 5.030086E-04 (3,14,6) -5.193958E-04 (3,15,5) 1.27377
(3,14,6): (2,14,6) 1.27377 (3,13,6) -2.54795 (3,14,5) 5.193958E-04 (3,14,7) -4.808577E-04 (3,15,6) 1.27379
(3,14,7): (2,14,7) 1.27376 (3,13,7) -2.54796 (3,14,6) 4.808577E-04 (3,14,8) -4.167934E-04 (3,15,7) 1.27380
(3,14,8): (2,14,8) 1.27376 (3,13,8) -2.54797 (3,14,7) 4.167934E-04 (3,14,9) -3.445188E-04 (3,15,8) 1.27381
(3,14,9): (2,14,9) 1.27376 (3,13,9) -2.54797 (3,14,8) 3.445188E-04 (3,14,10) -2.516854E-04 (3,15,9) 1.27382
(3,14,10): (2,14,10) 1.27375 (3,13,10) -2.54797 (3,14,9) 2.516854E-04 (3,15,10) 1.27382
(3,15,1): (2,15,1) 1.27360 (3,14,1) -1.27380 (3,15,2) -1.117272E-04
(3,15,2): (2,15,2) 1.27364 (3,14,2) -1.27371 (3,15,1) 1.117272E-04 (3,15,3) -2.901663E-04
(3,15,3): (2,15,3) 1.27363 (3,14,3) -1.27373 (3,15,2) 2.901663E-04 (3,15,4) -4.183715E-04
(3,15,4): (2,15,4) 1.27361 (3,14,4) -1.27375 (3,15,3) 4.183715E-04 (3,15,5) -4.824512E-04
(3,15,5): (2,15,5) 1.27360 (3,14,5) -1.27377 (3,15,4) 4.824512E-04 (3,15,6) -4.974538E-04
(3,15,6): (2,15,6) 1.27359 (3,14,6) -1.27379 (3,15,5) 4.974538E-04 (3,15,7) -4.653203E-04
(3,15,7): (2,15,7) 1.27358 (3,14,7) -1.27380 (3,15,6) 4.653203E-04 (3,15,8) -4.065950E-04
(3,15,8): (2,15,8) 1.27358 (3,14,8) -1.27381 (3,15,7) 4.065950E-04 (3,15,9) -3.394174E-04
(3,15,9): (2,15,9) 1.27358 (3,14,9) -1.27382 (3,15,8) 3.394174E-04 (3,15,10) -2.505648E-04
(3,15,10): (2,15,10) 1.27357 (3,14,10) -1.27382 (3,15,9) 2.505648E-04
1
  HEAD IN LAYER   1 AT END OF TIME STEP   1 IN STRESS PERIOD    1
  ---------------------------------------------------------------------------

            1           2           3           4           5           6           7           8           9          10
 ........................................................................................................................
   1    45.20       45.20       45.20       45.20       45.20       45.20       45.20       45.20       45.20       45.20    
   2    45.20       45.20       45.20       45.20       45.20       45.20       45.20       45.20       45.20       45.20    
   3    45.19       45.19       45.19       45.19       45.19       45.19       45.19       45.19       45.19       45.19    
   4    45.18       45.18       45.18       45.18       45.18       45.18       45.18       45.18       45.18       45.18    
   5    45.16       45.16       45.16       45.16       45.16       45.16       45.16       45.16       45.16       45.16    
   6    45.14       45.14       45.14       45.14       45.14       45.14       45.14       45.14       45.14       45.14    
   7    45.12       45.12       45.12       45.12       45.12       45.12       45.12       45.12       45.12       45.12    
   8    45.02       45.02       45.02       45.02       45.02       45.02       45.02       45.02       45.02       45.02    
   9    45.12       45.12       45.12       45.12       45.12       45.12       45.12       45.12       45.12       45.12    
  10    45.14       45.14       45.14       45.14       45.14       45.14       45.14       45.14       45.14       45.14    
  11    45.16       45.16       45.16       45.16       45.16       45.16       45.16       45.16       45.16       45.16    
  12    45.18       45.18       45.18       45.18       45.18       45.18       45.18       45.18       45.18       45.18    
  13    45.19       45.19       45.19       45.19       45.19       45.19       45.19       45.19       45.19       45.19    
  14    45.20       45.20       45.20       45.20       45.20       45.20       45.20       45.20       45.20       45.20    
  15    45.20       45.20       45.20       45.20       45.20       45.20       45.20       45.20       45.20       45.20    
1
  HEAD IN LAYER   2 AT END OF TIME STEP   1 IN STRESS PERIOD    1
  ---------------------------------------------------------------------------

            1           2           3           4           5           6           7           8           9          10
 ........................................................................................................................
   1    45.20       45.20       45.20       45.20       45.20       45.20       45.20       45.20       45.20       45.20    
   2    45.19       45.19       45.19       45.19       45.19       45.19       45.19       45.19       45.19       45.19    
   3    45.19       45.19       45.19       45.19       45.19       45.19       45.19       45.19       45.19       45.19    
   4    45.17       45.17       45.17       45.17       45.17       45.17       45.17       45.17       45.17       45.17    
   5    45.16       45.16       45.16       45.16       45.16       45.16       45.16       45.16       45.16       45.16    
   6    45.14       45.14       45.14       45.14       45.14       45.14       45.14       45.14       45.14       45.14    
   7    45.12       45.12       45.12       45.12       45.12       45.12       45.12       45.12       45.12       45.12    
   8    45.06       45.06       45.06       45.06       45.06       45.06       45.06       45.06       45.06       45.06    
   9    45.12       45.12       45.12       45.12       45.12       45.12       45.12       45.12       45.12       45.12    
  10    45.14       45.14       45.14       45.14       45.14       45.14       45.14       45.14       45.14       45.14    
  11    45.16       45.16       45.16       45.16       45.16       45.16       45.16       45.16       45.16       45.16    
  12    45.17       45.17       45.17       45.17       45.17       45.17       45.17       45.17       45.17       45.17    
  13    45.19       45.19       45.19       45.19       45.19       45.19       45.19       45.19       45.19       45.19    
  14    45.19       45.19       45.19       45.19       45.19       45.19       45.19       45.19       45.19       45.19    
  15    45.20       45.20       45.20       45.20       45.20       45.20       45.20       45.20       45.20       45.20    
1
  HEAD IN LAYER   3 AT END OF TIME STEP   1 IN STRESS PERIOD    1
  ---------------------------------------------------------------------------

            1           2           3           4           5           6           7           8           9          10
 ........................................................................................................................
   1    45.19       45.19       45.19       45.19       45.19       45.19       45.19       45.19       45.19       45.19    
   2    45.19       45.19       45.19       45.19       45.19       45.19       45.19       45.19       45.19       45.19    
   3    45.18       45.18       45.18       45.18       45.18       45.18       45.18       45.18       45.18       45.18    
   4    45.17       45.17       45.17       45.17       45.17       45.17       45.17       45.17       45.17       45.17    
   5    45.16       45.16       45.16       45.16       45.16       45.16       45.16       45.16       45.16       45.16    
   6    45.14       45.14       45.14       45.14       45.14       45.14       45.14       45.14       45.14       45.14    
   7    45.12       45.12       45.12       45.12       45.12       45.12       45.12       45.12       45.12       45.12    
   8    45.10       45.10       45.10       45.10       45.10       45.10       45.10       45.10       45.10       45.10    
   9    45.12       45.12       45.12       45.12       45.12       45.12       45.12       45.12       45.12       45.12    
  10    45.14       45.14       45.14       45.14       45.14       45.14       45.14       45.14       45.14       45.14    
  11    45.16       45.16       45.16       45.16       45.16       45.16       45.16       45.16       45.16       45.16    
  12    45.17       45.17       45.17       45.17       45.17       45.17       45.17       45.17       45.17       45.17    
  13    45.18       45.18       45.18       45.18       45.18       45.18       45.18       45.18       45.18       45.18    
  14    45.19       45.19       45.19       45.19       45.19       45.19       45.19       45.19       45.19       45.19    
  15    45.19       45.19       45.19       45.19       45.19       45.19       45.19       45.19       45.19       45.19    

 HEAD WILL BE SAVED ON UNIT 1020 AT END OF TIME STEP    1, STRESS PERIOD    1


  VOLUME BUDGET FOR ENTIRE MODEL AT END OF TIME STEP    1, STRESS PERIOD   1
  ---------------------------------------------------------------------------------------------------

     CUMULATIVE VOLUME      L**3       RATES FOR THIS TIME STEP      L**3/T          PACKAGE NAME    
     ------------------                 ------------------------                     ----------------

           IN:                                      IN:
           ---                                      ---
              STO-SS =           0.0000                STO-SS =           0.0000     STORAGE         
              STO-SY =           0.0000                STO-SY =           0.0000     STORAGE         
                 WEL =           0.0000                   WEL =           0.0000     WEL_0           
                 RIV =           0.0000                   RIV =           0.0000     RIV_0           
                 RCH =         205.4795                   RCH =         205.4795     RCH             

            TOTAL IN =         205.4795              TOTAL IN =         205.4795

          OUT:                                     OUT:
          ----                                     ----
              STO-SS =           0.0000                STO-SS =           0.0000     STORAGE         
              STO-SY =           0.0000                STO-SY =           0.0000     STORAGE         
                 WEL =           0.0000                   WEL =           0.0000     WEL_0           
                 RIV =         205.5162                   RIV =         205.5162     RIV_0           
                 RCH =           0.0000                   RCH =           0.0000     RCH             

           TOTAL OUT =         205.5162             TOTAL OUT =         205.5162

            IN - OUT =       3.6784E-02              IN - OUT =       3.6784E-02

 PERCENT DISCREPANCY =          -0.02     PERCENT DISCREPANCY =          -0.02




         TIME SUMMARY AT END OF TIME STEP    1 IN STRESS PERIOD    1
                    SECONDS     MINUTES      HOURS       DAYS        YEARS
                    -----------------------------------------------------------
   TIME STEP LENGTH  86400.      1440.0      24.000      1.0000     2.73785E-03
 STRESS PERIOD TIME  86400.      1440.0      24.000      1.0000     2.73785E-03
         TOTAL TIME  86400.      1440.0      24.000      1.0000     2.73785E-03


end timestep


start timestep kper="2" kstp="1" mode="normal"


 END OF FILE DETECTED IN OUTPUT CONTROL.
 CURRENT OUTPUT CONTROL SETTINGS WILL BE 
 REPEATED UNTIL THE END OF THE SIMULATION.

 OUTPUT CONTROL FOR STRESS PERIOD 2 IS REPEATED USING SETTINGS FROM A PREVIOUS STRESS PERIOD.


 PROCESSING STORAGE PERIOD DATA
 END PROCESSING STORAGE PERIOD DATA


 STRESS PERIOD 2 IS TRANSIENT

 ---------------------------------------------------
  WEL NO.    LAYER    ROW     COL     STRESS RATE   
 ---------------------------------------------------
     1         3       6       4    -100.000000     
     2         3      11       7    -50.0000000     
 ---------------------------------------------------



 REUSING RIVS FROM LAST STRESS PERIOD

 REUSING RCHS FROM LAST STRESS PERIOD
 UBDSV1 SAVING           STO-SS ON UNIT   1019 AT TIME STEP      1, STRESS PERIOD      2
 UBDSV1 SAVING           STO-SY ON UNIT   1019 AT TIME STEP      1, STRESS PERIOD      2
 UBDSV1 SAVING     FLOW-JA-FACE ON UNIT   1019 AT TIME STEP      1, STRESS PERIOD      2
 UBDSV06 SAVING       DATA-SPDIS IN MODEL SYMP06           PACKAGE NPF             CONNECTED TO MODEL SYMP06           PACKAGE NPF              ON UNIT   1019 AT TIME STEP      1, STRESS PERIOD      2
 UBDSV06 SAVING              WEL IN MODEL SYMP06           PACKAGE SYMP06          CONNECTED TO MODEL SYMP06           PACKAGE WEL_0            ON UNIT   1019 AT TIME STEP      1, STRESS PERIOD      2
 UBDSV06 SAVING              RIV IN MODEL SYMP06           PACKAGE SYMP06          CONNECTED TO MODEL SYMP06           PACKAGE RIV_0            ON UNIT   1019 AT TIME STEP      1, STRESS PERIOD      2
 UBDSV06 SAVING              RCH IN MODEL SYMP06           PACKAGE SYMP06          CONNECTED TO MODEL SYMP06           PACKAGE RCH              ON UNIT   1019 AT TIME STEP      1, STRESS PERIOD      2

 HEAD WILL BE SAVED ON UNIT 1020 AT END OF TIME STEP    1, STRESS PERIOD    2

end timestep


start timestep kper="2" kstp="2" mode="normal"

 UBDSV1 SAVING           STO-SS ON UNIT   1019 AT TIME STEP      2, STRESS PERIOD      2
 UBDSV1 SAVING           STO-SY ON UNIT   1019 AT TIME STEP      2, STRESS PERIOD      2
 UBDSV1 SAVING     FLOW-JA-FACE ON UNIT   1019 AT TIME STEP      2, STRESS PERIOD      2
 UBDSV06 SAVING       DATA-SPDIS IN MODEL SYMP06           PACKAGE NPF             CONNECTED TO MODEL SYMP06           PACKAGE NPF              ON UNIT   1019 AT TIME STEP      2, STRESS PERIOD      2
 UBDSV06 SAVING              WEL IN MODEL SYMP06           PACKAGE SYMP06          CONNECTED TO MODEL SYMP06           PACKAGE WEL_0            ON UNIT   1019 AT TIME STEP      2, STRESS PERIOD      2
 UBDSV06 SAVING              RIV IN MODEL SYMP06           PACKAGE SYMP06          CONNECTED TO MODEL SYMP06           PACKAGE RIV_0            ON UNIT   1019 AT TIME STEP      2, STRESS PERIOD      2
 UBDSV06 SAVING              RCH IN MODEL SYMP06           PACKAGE SYMP06          CONNECTED TO MODEL SYMP06           PACKAGE RCH              ON UNIT   1019 AT TIME STEP      2, STRESS PERIOD      2

 HEAD WILL BE SAVED ON UNIT 1020 AT END OF TIME STEP    2, STRESS PERIOD    2

end timestep


start timestep kper="2" kstp="3" mode="normal"

 UBDSV1 SAVING           STO-SS ON UNIT   1019 AT TIME STEP      3, STRESS PERIOD      2
 UBDSV1 SAVING           STO-SY ON UNIT   1019 AT TIME STEP      3, STRESS PERIOD      2
 UBDSV1 SAVING     FLOW-JA-FACE ON UNIT   1019 AT TIME STEP      3, STRESS PERIOD      2
 UBDSV06 SAVING       DATA-SPDIS IN MODEL SYMP06           PACKAGE NPF             CONNECTED TO MODEL SYMP06           PACKAGE NPF              ON UNIT   1019 AT TIME STEP      3, STRESS PERIOD      2
 UBDSV06 SAVING              WEL IN MODEL SYMP06           PACKAGE SYMP06          CONNECTED TO MODEL SYMP06           PACKAGE WEL_0            ON UNIT   1019 AT TIME STEP      3, STRESS PERIOD      2
 UBDSV06 SAVING              RIV IN MODEL SYMP06           PACKAGE SYMP06          CONNECTED TO MODEL SYMP06           PACKAGE RIV_0            ON UNIT   1019 AT TIME STEP      3, STRESS PERIOD      2
 UBDSV06 SAVING              RCH IN MODEL SYMP06           PACKAGE SYMP06          CONNECTED TO MODEL SYMP06           PACKAGE RCH              ON UNIT   1019 AT TIME STEP      3, STRESS PERIOD      2

 HEAD WILL BE SAVED ON UNIT 1020 AT END OF TIME STEP    3, STRESS PERIOD    2

end timestep


start timestep kper="2" kstp="4" mode="normal"

 UBDSV1 SAVING           STO-SS ON UNIT   1019 AT TIME STEP      4, STRESS PERIOD      2
 UBDSV1 SAVING           STO-SY ON UNIT   1019 AT TIME STEP      4, STRESS PERIOD      2
 UBDSV1 SAVING     FLOW-JA-FACE ON UNIT   1019 AT TIME STEP      4, STRESS PERIOD      2
 UBDSV06 SAVING       DATA-SPDIS IN MODEL SYMP06           PACKAGE NPF             CONNECTED TO MODEL SYMP06           PACKAGE NPF              ON UNIT   1019 AT TIME STEP      4, STRESS PERIOD      2
 UBDSV06 SAVING              WEL IN MODEL SYMP06           PACKAGE SYMP06          CONNECTED TO MODEL SYMP06           PACKAGE WEL_0            ON UNIT   1019 AT TIME STEP      4, STRESS PERIOD      2
 UBDSV06 SAVING              RIV IN MODEL SYMP06           PACKAGE SYMP06          CONNECTED TO MODEL SYMP06           PACKAGE RIV_0            ON UNIT   1019 AT TIME STEP      4, STRESS PERIOD      2
 UBDSV06 SAVING              RCH IN MODEL SYMP06           PACKAGE SYMP06          CONNECTED TO MODEL SYMP06           PACKAGE RCH              ON UNIT   1019 AT TIME STEP      4, STRESS PERIOD      2

 HEAD WILL BE SAVED ON UNIT 1020 AT END OF TIME STEP    4, STRESS PERIOD    2

end timestep


start timestep kper="2" kstp="5" mode="normal"

 UBDSV1 SAVING           STO-SS ON UNIT   1019 AT TIME STEP      5, STRESS PERIOD      2
 UBDSV1 SAVING           STO-SY ON UNIT   1019 AT TIME STEP      5, STRESS PERIOD      2
 UBDSV1 SAVING     FLOW-JA-FACE ON UNIT   1019 AT TIME STEP      5, STRESS PERIOD      2
 UBDSV06 SAVING       DATA-SPDIS IN MODEL SYMP06           PACKAGE NPF             CONNECTED TO MODEL SYMP06           PACKAGE NPF              ON UNIT   1019 AT TIME STEP      5, STRESS PERIOD      2
 UBDSV06 SAVING              WEL IN MODEL SYMP06           PACKAGE SYMP06          CONNECTED TO MODEL SYMP06           PACKAGE WEL_0            ON UNIT   1019 AT TIME STEP      5, STRESS PERIOD      2
 UBDSV06 SAVING              RIV IN MODEL SYMP06           PACKAGE SYMP06          CONNECTED TO MODEL SYMP06           PACKAGE RIV_0            ON UNIT   1019 AT TIME STEP      5, STRESS PERIOD      2
 UBDSV06 SAVING              RCH IN MODEL SYMP06           PACKAGE SYMP06          CONNECTED TO MODEL SYMP06           PACKAGE RCH              ON UNIT   1019 AT TIME STEP      5, STRESS PERIOD      2

 HEAD WILL BE SAVED ON UNIT 1020 AT END OF TIME STEP    5, STRESS PERIOD    2

end timestep


start timestep kper="2" kstp="6" mode="normal"

 UBDSV1 SAVING           STO-SS ON UNIT   1019 AT TIME STEP      6, STRESS PERIOD      2
 UBDSV1 SAVING           STO-SY ON UNIT   1019 AT TIME STEP      6, STRESS PERIOD      2
 UBDSV1 SAVING     FLOW-JA-FACE ON UNIT   1019 AT TIME STEP      6, STRESS PERIOD      2
 UBDSV06 SAVING       DATA-SPDIS IN MODEL SYMP06           PACKAGE NPF             CONNECTED TO MODEL SYMP06           PACKAGE NPF              ON UNIT   1019 AT TIME STEP      6, STRESS PERIOD      2
 UBDSV06 SAVING              WEL IN MODEL SYMP06           PACKAGE SYMP06          CONNECTED TO MODEL SYMP06           PACKAGE WEL_0            ON UNIT   1019 AT TIME STEP      6, STRESS PERIOD      2
 UBDSV06 SAVING              RIV IN MODEL SYMP06           PACKAGE SYMP06          CONNECTED TO MODEL SYMP06           PACKAGE RIV_0            ON UNIT   1019 AT TIME STEP      6, STRESS PERIOD      2
 UBDSV06 SAVING              RCH IN MODEL SYMP06           PACKAGE SYMP06          CONNECTED TO MODEL SYMP06           PACKAGE RCH              ON UNIT   1019 AT TIME STEP      6, STRESS PERIOD      2

 HEAD WILL BE SAVED ON UNIT 1020 AT END OF TIME STEP    6, STRESS PERIOD    2

end timestep


start timestep kper="2" kstp="7" mode="normal"

 UBDSV1 SAVING           STO-SS ON UNIT   1019 AT TIME STEP      7, STRESS PERIOD      2
 UBDSV1 SAVING           STO-SY ON UNIT   1019 AT TIME STEP      7, STRESS PERIOD      2
 UBDSV1 SAVING     FLOW-JA-FACE ON UNIT   1019 AT TIME STEP      7, STRESS PERIOD      2
 UBDSV06 SAVING       DATA-SPDIS IN MODEL SYMP06           PACKAGE NPF             CONNECTED TO MODEL SYMP06           PACKAGE NPF              ON UNIT   1019 AT TIME STEP      7, STRESS PERIOD      2
 UBDSV06 SAVING              WEL IN MODEL SYMP06           PACKAGE SYMP06          CONNECTED TO MODEL SYMP06           PACKAGE WEL_0            ON UNIT   1019 AT TIME STEP      7, STRESS PERIOD      2
 UBDSV06 SAVING              RIV IN MODEL SYMP06           PACKAGE SYMP06          CONNECTED TO MODEL SYMP06           PACKAGE RIV_0            ON UNIT   1019 AT TIME STEP      7, STRESS PERIOD      2
 UBDSV06 SAVING              RCH IN MODEL SYMP06           PACKAGE SYMP06          CONNECTED TO MODEL SYMP06           PACKAGE RCH              ON UNIT   1019 AT TIME STEP      7, STRESS PERIOD      2

 HEAD WILL BE SAVED ON UNIT 1020 AT END OF TIME STEP    7, STRESS PERIOD    2

end timestep


start timestep kper="2" kstp="8" mode="normal"

 UBDSV1 SAVING           STO-SS ON UNIT   1019 AT TIME STEP      8, STRESS PERIOD      2
 UBDSV1 SAVING           STO-SY ON UNIT   1019 AT TIME STEP      8, STRESS PERIOD      2
 UBDSV1 SAVING     FLOW-JA-FACE ON UNIT   1019 AT TIME STEP      8, STRESS PERIOD      2
 UBDSV06 SAVING       DATA-SPDIS IN MODEL SYMP06           PACKAGE NPF             CONNECTED TO MODEL SYMP06           PACKAGE NPF              ON UNIT   1019 AT TIME STEP      8, STRESS PERIOD      2
 UBDSV06 SAVING              WEL IN MODEL SYMP06           PACKAGE SYMP06          CONNECTED TO MODEL SYMP06           PACKAGE WEL_0            ON UNIT   1019 AT TIME STEP      8, STRESS PERIOD      2
 UBDSV06 SAVING              RIV IN MODEL SYMP06           PACKAGE SYMP06          CONNECTED TO MODEL SYMP06           PACKAGE RIV_0            ON UNIT   1019 AT TIME STEP      8, STRESS PERIOD      2
 UBDSV06 SAVING              RCH IN MODEL SYMP06           PACKAGE SYMP06          CONNECTED TO MODEL SYMP06           PACKAGE RCH              ON UNIT   1019 AT TIME STEP      8, STRESS PERIOD      2

 HEAD WILL BE SAVED ON UNIT 1020 AT END OF TIME STEP    8, STRESS PERIOD    2

end timestep


start timestep kper="2" kstp="9" mode="normal"

 UBDSV1 SAVING           STO-SS ON UNIT   1019 AT TIME STEP      9, STRESS PERIOD      2
 UBDSV1 SAVING           STO-SY ON UNIT   1019 AT TIME STEP      9, STRESS PERIOD      2
 UBDSV1 SAVING     FLOW-JA-FACE ON UNIT   1019 AT TIME STEP      9, STRESS PERIOD      2
 UBDSV06 SAVING       DATA-SPDIS IN MODEL SYMP06           PACKAGE NPF             CONNECTED TO MODEL SYMP06           PACKAGE NPF              ON UNIT   1019 AT TIME STEP      9, STRESS PERIOD      2
 UBDSV06 SAVING              WEL IN MODEL SYMP06           PACKAGE SYMP06          CONNECTED TO MODEL SYMP06           PACKAGE WEL_0            ON UNIT   1019 AT TIME STEP      9, STRESS PERIOD      2
 UBDSV06 SAVING              RIV IN MODEL SYMP06           PACKAGE SYMP06          CONNECTED TO MODEL SYMP06           PACKAGE RIV_0            ON UNIT   1019 AT TIME STEP      9, STRESS PERIOD      2
 UBDSV06 SAVING              RCH IN MODEL SYMP06           PACKAGE SYMP06          CONNECTED TO MODEL SYMP06           PACKAGE RCH              ON UNIT   1019 AT TIME STEP      9, STRESS PERIOD      2

 HEAD WILL BE SAVED ON UNIT 1020 AT END OF TIME STEP    9, STRESS PERIOD    2

end timestep


start timestep kper="2" kstp="10" mode="normal"

 UBDSV1 SAVING           STO-SS ON UNIT   1019 AT TIME STEP     10, STRESS PERIOD      2
 UBDSV1 SAVING           STO-SY ON UNIT   1019 AT TIME STEP     10, STRESS PERIOD      2
 UBDSV1 SAVING     FLOW-JA-FACE ON UNIT   1019 AT TIME STEP     10, STRESS PERIOD      2
[...]
(3,4,4): (2,4,4) 1.54032 (3,3,4) 7.21391 (3,4,3) 1.05427 (3,4,5) 2.72749 (3,5,4) -12.5366
(3,4,5): (2,4,5) 1.51202 (3,3,5) 6.05198 (3,4,4) -2.72749 (3,4,6) 3.58816 (3,5,5) -8.42526
(3,4,6): (2,4,6) 1.50285 (3,3,6) 4.71457 (3,4,5) -3.58816 (3,4,7) 3.14747 (3,5,6) -5.77726
(3,4,7): (2,4,7) 1.50013 (3,3,7) 3.79756 (3,4,6) -3.14747 (3,4,8) 2.36273 (3,5,7) -4.51345
(3,4,8): (2,4,8) 1.49891 (3,3,8) 3.26766 (3,4,7) -2.36273 (3,4,9) 1.54585 (3,5,8) -3.95028
(3,4,9): (2,4,9) 1.49822 (3,3,9) 2.99266 (3,4,8) -1.54585 (3,4,10) 0.761020 (3,5,9) -3.70646
(3,4,10): (2,4,10) 1.49787 (3,3,10) 2.87744 (3,4,9) -0.761020 (3,5,10) -3.61475
(3,5,1): (2,5,1) 1.47533 (3,4,1) 4.49576 (3,5,2) -2.21428 (3,6,1) -3.75739
(3,5,2): (2,5,2) 1.48428 (3,4,2) 5.60141 (3,5,1) 2.21428 (3,5,3) -4.48370 (3,6,2) -4.81700
(3,5,3): (2,5,3) 1.54638 (3,4,3) 8.29473 (3,5,2) 4.48370 (3,5,4) -5.29619 (3,6,3) -9.02934
(3,5,4): (2,5,4) 1.88381 (3,4,4) 12.5366 (3,5,3) 5.29619 (3,5,5) 6.83888 (3,6,4) -26.5562
(3,5,5): (2,5,5) 1.54631 (3,4,5) 8.42526 (3,5,4) -6.83888 (3,5,6) 6.23616 (3,6,5) -9.36948
(3,5,6): (2,5,6) 1.48330 (3,4,6) 5.77726 (3,5,5) -6.23616 (3,5,7) 4.41128 (3,6,6) -5.43624
(3,5,7): (2,5,7) 1.47297 (3,4,7) 4.51345 (3,5,6) -4.41128 (3,5,8) 2.92590 (3,6,7) -4.50154
(3,5,8): (2,5,8) 1.47032 (3,4,8) 3.95028 (3,5,7) -2.92590 (3,5,9) 1.78967 (3,6,8) -4.28491
(3,5,9): (2,5,9) 1.46909 (3,4,9) 3.70646 (3,5,8) -1.78967 (3,5,10) 0.852725 (3,6,9) -4.23902
(3,5,10): (2,5,10) 1.46849 (3,4,10) 3.61475 (3,5,9) -0.852725 (3,6,10) -4.23096
(3,6,1): (2,6,1) 1.38695 (3,5,1) 3.75739 (3,6,2) -3.27389 (3,7,1) -1.87101
(3,6,2): (2,6,2) 1.42449 (3,5,2) 4.81700 (3,6,1) 3.27389 (3,6,3) -8.69604 (3,7,2) -0.820032
(3,6,3): (2,6,3) 1.80066 (3,5,3) 9.02934 (3,6,2) 8.69604 (3,6,4) -22.8231 (3,7,3) 3.29636
(3,6,4): (2,6,4) 6.09066 (3,5,4) 26.5562 (3,6,3) 22.8231 (3,6,5) 24.0256 (3,7,4) 20.5038
(3,6,5): (2,6,5) 1.80226 (3,5,5) 9.36948 (3,6,4) -24.0256 (3,6,6) 10.1694 (3,7,5) 2.68388
(3,6,6): (2,6,6) 1.42513 (3,5,6) 5.43624 (3,6,5) -10.1694 (3,6,7) 5.34598 (3,7,6) -2.03849
(3,6,7): (2,6,7) 1.38384 (3,5,7) 4.50154 (3,6,6) -5.34598 (3,6,8) 3.14253 (3,7,7) -3.68236
(3,6,8): (2,6,8) 1.37331 (3,5,8) 4.28491 (3,6,7) -3.14253 (3,6,9) 1.83557 (3,7,8) -4.35172
(3,6,9): (2,6,9) 1.36737 (3,5,9) 4.23902 (3,6,8) -1.83557 (3,6,10) 0.860785 (3,7,9) -4.63195
(3,6,10): (2,6,10) 1.36431 (3,5,10) 4.23096 (3,6,9) -0.860785 (3,7,10) -4.73484
(3,7,1): (2,7,1) 0.724603 (3,6,1) 1.87101 (3,7,2) -2.22292 (3,8,1) -0.373214
(3,7,2): (2,7,2) 0.778704 (3,6,2) 0.820032 (3,7,1) 2.22292 (3,7,3) -4.57965 (3,8,2) 0.757366
(3,7,3): (2,7,3) 0.916228 (3,6,3) -3.29636 (3,7,2) 4.57965 (3,7,4) -5.61563 (3,8,3) 3.41556
(3,7,4): (2,7,4) 1.30935 (3,6,4) -20.5038 (3,7,3) 5.61563 (3,7,5) 6.20570 (3,8,4) 7.37256
(3,7,5): (2,7,5) 0.928421 (3,6,5) -2.68388 (3,7,4) -6.20570 (3,7,6) 5.44704 (3,8,5) 2.51359
(3,7,6): (2,7,6) 0.792101 (3,6,6) 2.03849 (3,7,5) -5.44704 (3,7,7) 3.70211 (3,8,6) -1.08613
(3,7,7): (2,7,7) 0.712644 (3,6,7) 3.68236 (3,7,6) -3.70211 (3,7,8) 2.47316 (3,8,7) -3.16642
(3,7,8): (2,7,8) 0.644328 (3,6,8) 4.35172 (3,7,7) -2.47316 (3,7,9) 1.55534 (3,8,8) -4.07862
(3,7,9): (2,7,9) 0.592121 (3,6,9) 4.63195 (3,7,8) -1.55534 (3,7,10) 0.757896 (3,8,9) -4.42692
(3,7,10): (2,7,10) 0.564186 (3,6,10) 4.73484 (3,7,9) -0.757896 (3,8,10) -4.54141
(3,8,1): (2,8,1) -5.50321 (3,7,1) 0.373214 (3,8,2) -1.09234 (3,9,1) 6.22190
(3,8,2): (2,8,2) -5.03278 (3,7,2) -0.757366 (3,8,1) 1.09234 (3,8,3) -1.92146 (3,9,2) 6.61875
(3,8,3): (2,8,3) -4.20995 (3,7,3) -3.41556 (3,8,2) 1.92146 (3,8,4) -1.65863 (3,9,3) 7.36218
(3,8,4): (2,8,4) -3.50938 (3,7,4) -7.37256 (3,8,3) 1.65863 (3,8,5) 1.34673 (3,9,4) 7.87616
(3,8,5): (2,8,5) -4.07725 (3,7,5) -2.51359 (3,8,4) -1.34673 (3,8,6) 1.84731 (3,9,5) 6.08986
(3,8,6): (2,8,6) -4.87132 (3,7,6) 1.08613 (3,8,5) -1.84731 (3,8,7) 1.62182 (3,9,6) 4.01033
(3,8,7): (2,8,7) -5.57448 (3,7,7) 3.16642 (3,8,6) -1.62182 (3,8,8) 1.56096 (3,9,7) 2.46866
(3,8,8): (2,8,8) -6.24771 (3,7,8) 4.07862 (3,8,7) -1.56096 (3,8,9) 1.20704 (3,9,8) 2.52274
(3,8,9): (2,8,9) -6.76823 (3,7,9) 4.42692 (3,8,8) -1.20704 (3,8,10) 0.643413 (3,9,9) 2.90475
(3,8,10): (2,8,10) -7.04594 (3,7,10) 4.54141 (3,8,9) -0.643413 (3,9,10) 3.14776
(3,9,1): (2,9,1) 0.719771 (3,8,1) -6.22190 (3,9,2) -0.695488 (3,10,1) 6.19718
(3,9,2): (2,9,2) 0.766180 (3,8,2) -6.61875 (3,9,1) 0.695488 (3,9,3) -1.17802 (3,10,2) 6.33460
(3,9,3): (2,9,3) 0.844792 (3,8,3) -7.36218 (3,9,2) 1.17802 (3,9,4) -1.14465 (3,10,3) 6.48354
(3,9,4): (2,9,4) 0.906353 (3,8,4) -7.87616 (3,9,3) 1.14465 (3,9,5) -0.439566 (3,10,4) 6.26431
(3,9,5): (2,9,5) 0.857206 (3,8,5) -6.08986 (3,9,4) 0.439566 (3,9,6) -0.232213 (3,10,5) 5.02491
(3,9,6): (2,9,6) 0.783084 (3,8,6) -4.01033 (3,9,5) 0.232213 (3,9,7) 8.014432E-02 (3,10,6) 2.91456
(3,9,7): (2,9,7) 0.724404 (3,8,7) -2.46866 (3,9,6) -8.014432E-02 (3,9,8) 1.61504 (3,10,7) 0.209121
(3,9,8): (2,9,8) 0.644042 (3,8,8) -2.52274 (3,9,7) -1.61504 (3,9,9) 1.58905 (3,10,8) 1.90446
(3,9,9): (2,9,9) 0.588500 (3,8,9) -2.90475 (3,9,8) -1.58905 (3,9,10) 0.886424 (3,10,9) 3.01873
(3,9,10): (2,9,10) 0.560061 (3,8,10) -3.14776 (3,9,9) -0.886424 (3,10,10) 3.47396
(3,10,1): (2,10,1) 1.37362 (3,9,1) -6.19718 (3,10,2) -0.558066 (3,11,1) 5.38116
(3,10,2): (2,10,2) 1.37827 (3,9,2) -6.33460 (3,10,1) 0.558066 (3,10,3) -1.02909 (3,11,2) 5.42690
(3,10,3): (2,10,3) 1.38589 (3,9,3) -6.48354 (3,10,2) 1.02909 (3,10,4) -1.36388 (3,11,3) 5.43198
(3,10,4): (2,10,4) 1.39182 (3,9,4) -6.26431 (3,10,3) 1.36388 (3,10,5) -1.67897 (3,11,4) 5.18723
(3,10,5): (2,10,5) 1.39128 (3,9,5) -5.02491 (3,10,4) 1.67897 (3,10,6) -2.34256 (3,11,5) 4.29689
(3,10,6): (2,10,6) 1.41361 (3,9,6) -2.91456 (3,10,5) 2.34256 (3,10,7) -2.62530 (3,11,6) 1.78340
(3,10,7): (2,10,7) 1.57426 (3,9,7) -0.209121 (3,10,6) 2.62530 (3,10,8) 3.31038 (3,11,7) -7.30100
(3,10,8): (2,10,8) 1.39954 (3,9,8) -1.90446 (3,10,7) -3.31038 (3,10,9) 2.70332 (3,11,8) 1.11185
(3,10,9): (2,10,9) 1.36416 (3,9,9) -3.01873 (3,10,8) -2.70332 (3,10,10) 1.34165 (3,11,9) 3.01616
(3,10,10): (2,10,10) 1.35734 (3,9,10) -3.47396 (3,10,9) -1.34165 (3,11,10) 3.45813
(3,11,1): (2,11,1) 1.45933 (3,10,1) -5.38116 (3,11,2) -0.512326 (3,12,1) 4.43368
(3,11,2): (2,11,2) 1.45989 (3,10,2) -5.42690 (3,11,1) 0.512326 (3,11,3) -1.02401 (3,12,2) 4.47830
(3,11,3): (2,11,3) 1.46088 (3,10,3) -5.43198 (3,11,2) 1.02401 (3,11,4) -1.60864 (3,12,3) 4.55529
(3,11,4): (2,11,4) 1.46305 (3,10,4) -5.18723 (3,11,3) 1.60864 (3,11,5) -2.56930 (3,12,4) 4.68456
(3,11,5): (2,11,5) 1.47935 (3,10,5) -4.29689 (3,11,4) 2.56930 (3,11,6) -4.85605 (3,12,5) 5.10402
(3,11,6): (2,11,6) 1.66457 (3,10,6) -1.78340 (3,11,5) 4.85605 (3,11,7) -11.7097 (3,12,6) 6.97227
(3,11,7): (2,11,7) 3.82133 (3,10,7) 7.30100 (3,11,6) 11.7097 (3,11,8) 11.7232 (3,12,7) 15.4446
(3,11,8): (2,11,8) 1.66308 (3,10,8) -1.11185 (3,11,7) -11.7232 (3,11,9) 4.60763 (3,12,8) 6.56431
(3,11,9): (2,11,9) 1.47649 (3,10,9) -3.01616 (3,11,8) -4.60763 (3,11,10) 1.78361 (3,12,9) 4.36368
(3,11,10): (2,11,10) 1.45966 (3,10,10) -3.45813 (3,11,9) -1.78361 (3,12,10) 3.78194
(3,12,1): (2,12,1) 1.48387 (3,11,1) -4.43368 (3,12,2) -0.467704 (3,13,1) 3.41705
(3,12,2): (2,12,2) 1.48403 (3,11,2) -4.47830 (3,12,1) 0.467704 (3,12,3) -0.947016 (3,13,2) 3.47330
(3,12,3): (2,12,3) 1.48433 (3,11,3) -4.55529 (3,12,2) 0.947016 (3,12,4) -1.47937 (3,13,3) 3.60290
(3,12,4): (2,12,4) 1.48516 (3,11,4) -4.68456 (3,12,3) 1.47937 (3,12,5) -2.14984 (3,13,4) 3.86966
(3,12,5): (2,12,5) 1.48964 (3,11,5) -5.10402 (3,12,4) 2.14984 (3,12,6) -2.98781 (3,13,5) 4.45223
(3,12,6): (2,12,6) 1.52069 (3,11,6) -6.97227 (3,12,5) 2.98781 (3,12,7) -3.23738 (3,13,6) 5.70110
(3,12,7): (2,12,7) 1.69050 (3,11,7) -15.4446 (3,12,6) 3.23738 (3,12,8) 2.84296 (3,13,7) 7.67375
(3,12,8): (2,12,8) 1.52052 (3,11,8) -6.56431 (3,12,7) -2.84296 (3,12,9) 2.40700 (3,13,8) 5.47978
(3,12,9): (2,12,9) 1.48946 (3,11,9) -4.36368 (3,12,8) -2.40700 (3,12,10) 1.20187 (3,13,9) 4.07944
(3,12,10): (2,12,10) 1.48518 (3,11,10) -3.78194 (3,12,9) -1.20187 (3,13,10) 3.49853
(3,13,1): (2,13,1) 1.49834 (3,12,1) -3.41705 (3,13,2) -0.411450 (3,14,1) 2.32972
(3,13,2): (2,13,2) 1.49845 (3,12,2) -3.47330 (3,13,1) 0.411450 (3,13,3) -0.817421 (3,14,2) 2.38072
(3,13,3): (2,13,3) 1.49865 (3,12,3) -3.60290 (3,13,2) 0.817421 (3,13,4) -1.21261 (3,14,3) 2.49906
(3,13,4): (2,13,4) 1.49904 (3,12,4) -3.86966 (3,13,3) 1.21261 (3,13,5) -1.56727 (3,14,4) 2.72502
(3,13,5): (2,13,5) 1.50012 (3,12,5) -4.45223 (3,13,4) 1.56727 (3,13,6) -1.73893 (3,14,5) 3.12361
(3,13,6): (2,13,6) 1.50441 (3,12,6) -5.70110 (3,13,5) 1.73893 (3,13,7) -1.26473 (3,14,6) 3.72243
(3,13,7): (2,13,7) 1.51838 (3,12,7) -7.67375 (3,13,6) 1.26473 (3,13,8) 0.648991 (3,14,7) 4.24167
(3,13,8): (2,13,8) 1.50455 (3,12,8) -5.47978 (3,13,7) -0.648991 (3,13,9) 1.00666 (3,14,8) 3.61760
(3,13,9): (2,13,9) 1.50048 (3,12,9) -4.07944 (3,13,8) -1.00666 (3,13,10) 0.620957 (3,14,9) 2.96477
(3,13,10): (2,13,10) 1.49970 (3,12,10) -3.49853 (3,13,9) -0.620957 (3,14,10) 2.61963
(3,14,1): (2,14,1) 1.50771 (3,13,1) -2.32972 (3,14,2) -0.360456 (3,15,1) 1.18202
(3,14,2): (2,14,2) 1.50783 (3,13,2) -2.38072 (3,14,1) 0.360456 (3,14,3) -0.699076 (3,15,2) 1.21161
(3,14,3): (2,14,3) 1.50801 (3,13,3) -2.49906 (3,14,2) 0.699076 (3,14,4) -0.986657 (3,15,3) 1.27857
(3,14,4): (2,14,4) 1.50827 (3,13,4) -2.72502 (3,14,3) 0.986657 (3,14,5) -1.16868 (3,15,4) 1.39870
(3,14,5): (2,14,5) 1.50867 (3,13,5) -3.12361 (3,14,4) 1.16868 (3,14,6) -1.14011 (3,15,5) 1.58637
(3,14,6): (2,14,6) 1.50942 (3,13,6) -3.72243 (3,14,5) 1.14011 (3,14,7) -0.745486 (3,15,6) 1.81844
(3,14,7): (2,14,7) 1.51077 (3,13,7) -4.24167 (3,14,6) 0.745486 (3,14,8) 2.491571E-02 (3,15,7) 1.96064
(3,14,8): (2,14,8) 1.50970 (3,13,8) -3.61760 (3,14,7) -2.491571E-02 (3,14,9) 0.353838 (3,15,8) 1.77911
(3,14,9): (2,14,9) 1.50926 (3,13,9) -2.96477 (3,14,8) -0.353838 (3,14,10) 0.275811 (3,15,9) 1.53375
(3,14,10): (2,14,10) 1.50915 (3,13,10) -2.61963 (3,14,9) -0.275811 (3,15,10) 1.38614
(3,15,1): (2,15,1) 1.51241 (3,14,1) -1.18202 (3,15,2) -0.330864
(3,15,2): (2,15,2) 1.51250 (3,14,2) -1.21161 (3,15,1) 0.330864 (3,15,3) -0.632119
(3,15,3): (2,15,3) 1.51268 (3,14,3) -1.27857 (3,15,2) 0.632119 (3,15,4) -0.866531
(3,15,4): (2,15,4) 1.51291 (3,14,4) -1.39870 (3,15,3) 0.866531 (3,15,5) -0.981004
(3,15,5): (2,15,5) 1.51319 (3,14,5) -1.58637 (3,15,4) 0.981004 (3,15,6) -0.908044
(3,15,6): (2,15,6) 1.51350 (3,14,6) -1.81844 (3,15,5) 0.908044 (3,15,7) -0.603292
(3,15,7): (2,15,7) 1.51380 (3,14,7) -1.96064 (3,15,6) 0.603292 (3,15,8) -0.156609
(3,15,8): (2,15,8) 1.51384 (3,14,8) -1.77911 (3,15,7) 0.156609 (3,15,9) 0.108478
(3,15,9): (2,15,9) 1.51387 (3,14,9) -1.53375 (3,15,8) -0.108478 (3,15,10) 0.128203
(3,15,10): (2,15,10) 1.51391 (3,14,10) -1.38614 (3,15,9) -0.128203
1
  HEAD IN LAYER   1 AT END OF TIME STEP  12 IN STRESS PERIOD    2
  ---------------------------------------------------------------------------

            1           2           3           4           5           6           7           8           9          10
 ........................................................................................................................
   1    45.10       45.10       45.10       45.10       45.11       45.11       45.11       45.12       45.12       45.12    
   2    45.10       45.10       45.10       45.10       45.10       45.11       45.11       45.11       45.12       45.12    
   3    45.09       45.09       45.09       45.09       45.09       45.10       45.10       45.11       45.11       45.11    
   4    45.08       45.07       45.07       45.06       45.07       45.08       45.09       45.10       45.10       45.11    
   5    45.06       45.06       45.04       45.03       45.05       45.07       45.08       45.09       45.09       45.09    
   6    45.05       45.04       45.02       44.98       45.02       45.05       45.07       45.07       45.08       45.08    
   7    45.04       45.04       45.02       45.01       45.03       45.04       45.05       45.06       45.06       45.06    
   8    45.01       45.01       45.01       45.01       45.01       45.01       45.01       45.01       45.01       45.01    
   9    45.06       45.06       45.06       45.05       45.05       45.05       45.05       45.05       45.06       45.06    
  10    45.08       45.08       45.08       45.07       45.07       45.06       45.05       45.06       45.07       45.07    
  11    45.10       45.10       45.09       45.09       45.08       45.07       45.05       45.07       45.08       45.08    
  12    45.11       45.11       45.11       45.10       45.10       45.09       45.08       45.09       45.09       45.10    
  13    45.12       45.12       45.12       45.11       45.11       45.10       45.10       45.10       45.10       45.11    
  14    45.13       45.13       45.12       45.12       45.12       45.11       45.11       45.11       45.11       45.11    
  15    45.13       45.13       45.13       45.12       45.12       45.12       45.12       45.12       45.12       45.12    
1
  HEAD IN LAYER   2 AT END OF TIME STEP  12 IN STRESS PERIOD    2
  ---------------------------------------------------------------------------

            1           2           3           4           5           6           7           8           9          10
 ........................................................................................................................
   1    45.10       45.10       45.10       45.10       45.10       45.11       45.11       45.11       45.12       45.12    
   2    45.09       45.09       45.09       45.09       45.10       45.10       45.11       45.11       45.11       45.12    
   3    45.08       45.08       45.08       45.08       45.09       45.09       45.10       45.10       45.11       45.11    
   4    45.07       45.07       45.06       45.06       45.07       45.08       45.09       45.09       45.10       45.10    
   5    45.06       45.05       45.04       45.03       45.04       45.06       45.07       45.08       45.09       45.09    
   6    45.05       45.04       45.02       44.96       45.02       45.05       45.06       45.07       45.08       45.08    
   7    45.04       45.03       45.02       45.01       45.02       45.04       45.05       45.06       45.06       45.06    
   8    45.02       45.02       45.02       45.02       45.02       45.02       45.02       45.03       45.03       45.03    
   9    45.06       45.06       45.05       45.05       45.05       45.05       45.05       45.05       45.06       45.06    
  10    45.08       45.08       45.07       45.07       45.06       45.06       45.05       45.06       45.07       45.07    
  11    45.09       45.09       45.09       45.08       45.08       45.06       45.04       45.06       45.08       45.08    
  12    45.11       45.10       45.10       45.10       45.09       45.08       45.07       45.08       45.09       45.09    
  13    45.12       45.11       45.11       45.11       45.10       45.10       45.10       45.10       45.10       45.10    
  14    45.12       45.12       45.12       45.12       45.11       45.11       45.11       45.11       45.11       45.11    
  15    45.13       45.12       45.12       45.12       45.12       45.11       45.11       45.11       45.11       45.11    
1
  HEAD IN LAYER   3 AT END OF TIME STEP  12 IN STRESS PERIOD    2
  ---------------------------------------------------------------------------

            1           2           3           4           5           6           7           8           9          10
 ........................................................................................................................
   1    45.09       45.09       45.09       45.10       45.10       45.10       45.11       45.11       45.11       45.11    
   2    45.09       45.09       45.09       45.09       45.09       45.10       45.10       45.11       45.11       45.11    
   3    45.08       45.08       45.08       45.08       45.08       45.09       45.09       45.10       45.10       45.11    
   4    45.07       45.06       45.06       45.06       45.06       45.07       45.08       45.09       45.10       45.10    
   5    45.06       45.05       45.04       45.02       45.04       45.06       45.07       45.08       45.08       45.09    
   6    45.04       45.04       45.01       44.95       45.01       45.04       45.06       45.07       45.07       45.07    
   7    45.04       45.03       45.02       45.00       45.02       45.04       45.05       45.05       45.06       45.06    
   8    45.04       45.04       45.03       45.02       45.03       45.03       45.04       45.04       45.05       45.05    
   9    45.06       45.05       45.05       45.05       45.05       45.05       45.05       45.05       45.05       45.06    
  10    45.07       45.07       45.07       45.07       45.06       45.05       45.05       45.06       45.06       45.07    
  11    45.09       45.09       45.08       45.08       45.07       45.06       45.03       45.06       45.07       45.08    
  12    45.10       45.10       45.10       45.09       45.09       45.08       45.07       45.08       45.08       45.09    
  13    45.11       45.11       45.11       45.10       45.10       45.09       45.09       45.09       45.10       45.10    
  14    45.12       45.12       45.12       45.11       45.11       45.11       45.10       45.10       45.10       45.11    
  15    45.12       45.12       45.12       45.12       45.11       45.11       45.11       45.11       45.11       45.11    

 HEAD WILL BE SAVED ON UNIT 1020 AT END OF TIME STEP   12, STRESS PERIOD    2


  VOLUME BUDGET FOR ENTIRE MODEL AT END OF TIME STEP   12, STRESS PERIOD   2
  ---------------------------------------------------------------------------------------------------

     CUMULATIVE VOLUME      L**3       RATES FOR THIS TIME STEP      L**3/T          PACKAGE NAME    
     ------------------                 ------------------------                     ----------------

           IN:                                      IN:
           ---                                      ---
              STO-SS =         109.4262                STO-SS =           0.1411     STORAGE         
              STO-SY =       23592.2636                STO-SY =          31.3016     STORAGE         
                 WEL =           0.0000                   WEL =           0.0000     WEL_0           
                 RIV =           0.0000                   RIV =           0.0000     RIV_0           
                 RCH =       75205.4792                   RCH =         205.4795     RCH             

            TOTAL IN =       98907.1690              TOTAL IN =         236.9222

          OUT:                                     OUT:
          ----                                     ----
              STO-SS =           0.0000                STO-SS =           0.0000     STORAGE         
              STO-SY =           0.0000                STO-SY =           0.0000     STORAGE         
                 WEL =       54750.0000                   WEL =         150.0000     WEL_0           
                 RIV =       44149.0183                   RIV =          86.9240     RIV_0           
                 RCH =           0.0000                   RCH =           0.0000     RCH             

           TOTAL OUT =       98899.0183             TOTAL OUT =         236.9240

            IN - OUT =           8.1508              IN - OUT =       1.8296E-03

 PERCENT DISCREPANCY =           0.01     PERCENT DISCREPANCY =          -0.00




         TIME SUMMARY AT END OF TIME STEP   12 IN STRESS PERIOD    2
                    SECONDS     MINUTES      HOURS       DAYS        YEARS
                    -----------------------------------------------------------
   TIME STEP LENGTH 2.62800E+06  43800.      730.00      30.417     8.32763E-02
 STRESS PERIOD TIME 3.15360E+07 5.25600E+05  8760.0      365.00     0.99932    
         TOTAL TIME 3.16224E+07 5.27040E+05  8784.0      366.00      1.0021    


end timestep

