                                   MODFLOW 6
                U.S. GEOLOGICAL SURVEY MODULAR HYDROLOGIC MODEL
                          GROUNDWATER FLOW MODEL (GWF)
                            VERSION 6.2.1 02/18/2021

   MODFLOW 6 compiled Feb 18 2021 08:24:05 with IFORT compiler (ver. 19.10.2)

This software has been approved for release by the U.S. Geological 
Survey (USGS). Although the software has been subjected to rigorous 
review, the USGS reserves the right to update the software as needed 
pursuant to further analysis and review. No warranty, expressed or 
implied, is made by the USGS or the U.S. Government as to the 
functionality of the software and related material nor shall the 
fact of release constitute any such warranty. Furthermore, the 
software is released on condition that neither the USGS nor the U.S. 
Government shall be held liable for any damages resulting from its 
authorized or unauthorized use. Also refer to the USGS Water 
Resources Software User Rights Notice for complete use, copyright, 
and distribution information.


System command used to initiate simulation:
..\bin\mf6.exe

MODFLOW was compiled using uniform precision.

Real Variables
  KIND: 8
  TINY (smallest non-zero value):    2.225074-308
  HUGE (largest value):    1.797693+308
  PRECISION: 15
  BIT SIZE: 64

Integer Variables
  KIND: 4
  HUGE (largest value): 2147483647
  BIT SIZE: 32

Long Integer Variables
  KIND: 8
  HUGE (largest value): 9223372036854775807
  BIT SIZE: 64

Logical Variables
  KIND: 4
  BIT SIZE: 32
 

 OPENED symp03.oc
 FILE TYPE:OC6                    UNIT 1005   STATUS:OLD                 
 FORMAT:FORMATTED              ACCESS:SEQUENTIAL          
 ACTION:READ                


 OPENED symp03.riv
 FILE TYPE:RIV6                   UNIT 1006   STATUS:OLD                 
 FORMAT:FORMATTED              ACCESS:SEQUENTIAL          
 ACTION:READ                


 OPENED symp03.ic
 FILE TYPE:IC6                    UNIT 1007   STATUS:OLD                 
 FORMAT:FORMATTED              ACCESS:SEQUENTIAL          
 ACTION:READ                


 OPENED symp03.dis
 FILE TYPE:DIS6                   UNIT 1008   STATUS:OLD                 
 FORMAT:FORMATTED              ACCESS:SEQUENTIAL          
 ACTION:READ                


 OPENED symp03.npf
 FILE TYPE:NPF6                   UNIT 1009   STATUS:OLD                 
 FORMAT:FORMATTED              ACCESS:SEQUENTIAL          
 ACTION:READ                


 OPENED symp03.rcha
 FILE TYPE:RCH6                   UNIT 1010   STATUS:OLD                 
 FORMAT:FORMATTED              ACCESS:SEQUENTIAL          
 ACTION:READ                

 NAMEFILE OPTIONS:
    PACKAGE FLOWS WILL BE PRINTED FOR ALL MODEL PACKAGES
    FLOWS WILL BE SAVED TO BUDGET FILE SPECIFIED IN OUTPUT CONTROL

 DIS -- STRUCTURED GRID DISCRETIZATION PACKAGE, VERSION 2 : 3/27/2014 - INPUT READ FROM UNIT 1008


 # File generated by Flopy version 3.3.4 on 08/25/2021 at 14:35:43.
 PROCESSING DISCRETIZATION OPTIONS
 END OF DISCRETIZATION OPTIONS
 MODEL LENGTH UNIT IS UNDEFINED
 PROCESSING DISCRETIZATION DIMENSIONS
    NLAY =       3
    NROW =      15
    NCOL =      10
 END OF DISCRETIZATION DIMENSIONS
 PROCESSING GRIDDATA

                     DELR =   100.0000    

                     DELC =   100.0000    

 TOP ELEVATION OF LAYER 1 =   50.00000    

   MODEL LAYER BOTTOM EL. =   40.00000     FOR LAYER 1

   MODEL LAYER BOTTOM EL. =   35.00000     FOR LAYER 2

   MODEL LAYER BOTTOM EL. =   0.000000     FOR LAYER 3
 END PROCESSING GRIDDATA

 NPF -- NODE PROPERTY FLOW PACKAGE, VERSION 1, 3/30/2015 INPUT READ FROM UNIT 1009


 # File generated by Flopy version 3.3.4 on 08/25/2021 at 14:35:43.
 PROCESSING NPF OPTIONS
    CELL-BY-CELL FLOW INFORMATION WILL BE SAVED TO BINARY FILE WHENEVER ICBCFL IS NOT ZERO.
    SPECIFIC DISCHARGE WILL BE CALCULATED AT CELL CENTERS AND WRITTEN TO DATA-SPDIS IN BUDGET FILE WHEN REQUESTED.
    VALUES SPECIFIED FOR K22 ARE ANISOTROPY RATIOS AND WILL BE MULTIPLIED BY K BEFORE BEING USED IN CALCULATIONS.
    VALUES SPECIFIED FOR K33 ARE ANISOTROPY RATIOS AND WILL BE MULTIPLIED BY K BEFORE BEING USED IN CALCULATIONS.
 END OF NPF OPTIONS

 RIV   -- RIV PACKAGE, VERSION 8, 2/22/2014 INPUT READ FROM UNIT 1006
 # File generated by Flopy version 3.3.4 on 08/25/2021 at 14:35:43.

 PROCESSING RIV OPTIONS
    RIV BOUNDARIES HAVE NAMES IN LAST COLUMN.
 END OF RIV OPTIONS

 PROCESSING RIV DIMENSIONS
    MAXBOUND =      10
 END OF RIV DIMENSIONS

 RCH   -- RCH PACKAGE, VERSION 8, 2/22/2014 INPUT READ FROM UNIT 1010
 # File generated by Flopy version 3.3.4 on 08/25/2021 at 14:35:43.

 PROCESSING RCH OPTIONS
    RECHARGE INPUT WILL BE READ AS ARRAY(S).
 END OF RCH OPTIONS

 IC -- INITIAL CONDITIONS PACKAGE, VERSION 8, 3/28/2015 INPUT READ FROM UNIT 1007
 # File generated by Flopy version 3.3.4 on 08/25/2021 at 14:35:43.
 PROCESSING GRIDDATA
 END PROCESSING GRIDDATA
 PROCESSING GRIDDATA

                ICELLTYPE = 1 FOR LAYER 1

                ICELLTYPE = 0 FOR LAYER 2

                ICELLTYPE = 0 FOR LAYER 3

                        K =   5.000000     FOR LAYER 1

                        K =   10.00000     FOR LAYER 3

                      K22 =   1.000000     FOR LAYER 1

                      K22 =  0.1000000     FOR LAYER 2

                      K22 =   2.000000     FOR LAYER 3

                      K33 =  0.1000000    
 END PROCESSING GRIDDATA
    BINARY GRID INFORMATION WILL BE WRITTEN TO:
      UNIT NUMBER: 1012
      FILE NAME: c:\_data\onedrive\work\symple\course_repo\symple_flopy\models\symple_ex04\symp03.dis.grb

 OPENED c:\_data\onedrive\work\symple\course_repo\symple_flopy\models\symple_ex04\symp03.dis.grb
 FILE TYPE:DATA(BINARY)   UNIT 1012   STATUS:REPLACE             
 FORMAT:UNFORMATTED            ACCESS:STREAM              
 ACTION:READWRITE           

      THE LAST TIME STEP WILL BE PRINTED
      THE LAST TIME STEP WILL BE PRINTED
 # File generated by Flopy version 3.3.4 on 08/25/2021 at 14:35:43.

 PROCESSING OC OPTIONS

    BUDGET INFORMATION WILL BE WRITTEN TO:
      UNIT NUMBER: 1013
      FILE NAME: symp03.cbb

 OPENED symp03.cbb
 FILE TYPE:DATA(BINARY)   UNIT 1013   STATUS:REPLACE             
 FORMAT:UNFORMATTED            ACCESS:STREAM              
 ACTION:READWRITE           

    HEAD INFORMATION WILL BE WRITTEN TO:
      UNIT NUMBER: 1014
      FILE NAME: symp03.hds

 OPENED symp03.hds
 FILE TYPE:DATA(BINARY)   UNIT 1014   STATUS:REPLACE             
 FORMAT:UNFORMATTED            ACCESS:STREAM              
 ACTION:READWRITE           

 END OF OC OPTIONS

start timestep kper="1" kstp="1" mode="normal"


 BEGIN READING OUTPUT CONTROL FOR STRESS PERIOD 1
      ALL TIME STEPS WILL BE SAVED
      ALL TIME STEPS WILL BE SAVED
      THE LAST TIME STEP WILL BE PRINTED

 END READING OUTPUT CONTROL FOR STRESS PERIOD 1

                 RECHARGE =  0.1370000E-03
 UBDSV1 SAVING     FLOW-JA-FACE ON UNIT   1013 AT TIME STEP      1, STRESS PERIOD      1
 UBDSV06 SAVING       DATA-SPDIS IN MODEL SYMP03           PACKAGE NPF             CONNECTED TO MODEL SYMP03           PACKAGE NPF              ON UNIT   1013 AT TIME STEP      1, STRESS PERIOD      1
 UBDSV06 SAVING              RIV IN MODEL SYMP03           PACKAGE SYMP03          CONNECTED TO MODEL SYMP03           PACKAGE RIV_0            ON UNIT   1013 AT TIME STEP      1, STRESS PERIOD      1
 UBDSV06 SAVING              RCH IN MODEL SYMP03           PACKAGE SYMP03          CONNECTED TO MODEL SYMP03           PACKAGE RCH              ON UNIT   1013 AT TIME STEP      1, STRESS PERIOD      1

    CALCULATED INTERCELL FLOW FOR PERIOD 1 STEP 1
(1,1,1): (1,1,2) 2.577451E-04 (1,2,1) -8.459997E-02 (2,1,1) -1.28565
(1,1,2): (1,1,1) -2.577451E-04 (1,1,3) 4.024875E-05 (1,2,2) -8.457499E-02 (2,1,2) -1.28587
(1,1,3): (1,1,2) -4.024875E-05 (1,1,4) 4.212068E-06 (1,2,3) -8.456829E-02 (2,1,3) -1.28590
(1,1,4): (1,1,3) -4.212068E-06 (1,1,5) -1.521753E-05 (1,2,4) -8.456800E-02 (2,1,4) -1.28592
(1,1,5): (1,1,4) 1.521753E-05 (1,1,6) -3.618032E-05 (1,2,5) -8.457159E-02 (2,1,5) -1.28593
(1,1,6): (1,1,5) 3.618032E-05 (1,1,7) -5.656212E-05 (1,2,6) -8.457678E-02 (2,1,6) -1.28594
(1,1,7): (1,1,6) 5.656212E-05 (1,1,8) -7.056337E-05 (1,2,7) -8.458162E-02 (2,1,7) -1.28594
(1,1,8): (1,1,7) 7.056337E-05 (1,1,9) -8.262063E-05 (1,2,8) -8.458833E-02 (2,1,8) -1.28593
(1,1,9): (1,1,8) 8.262063E-05 (1,1,10) -9.985101E-05 (1,2,9) -8.460861E-02 (2,1,9) -1.28591
(1,1,10): (1,1,9) 9.985101E-05 (1,2,10) -8.466905E-02 (2,1,10) -1.28599
(1,2,1): (1,1,1) 8.459997E-02 (1,2,2) 2.825214E-04 (1,3,1) -0.193612 (2,2,1) -1.26183
(1,2,2): (1,1,2) 8.457499E-02 (1,2,1) -2.825214E-04 (1,2,3) 4.699582E-05 (1,3,2) -0.193483 (2,2,2) -1.26208
(1,2,3): (1,1,3) 8.456829E-02 (1,2,2) -4.699582E-05 (1,2,4) 4.569606E-06 (1,3,3) -0.193472 (2,2,3) -1.26212
(1,2,4): (1,1,4) 8.456800E-02 (1,2,3) -4.569606E-06 (1,2,5) -1.877114E-05 (1,3,4) -0.193476 (2,2,4) -1.26214
(1,2,5): (1,1,5) 8.457159E-02 (1,2,4) 1.877114E-05 (1,2,6) -4.135111E-05 (1,3,5) -0.193483 (2,2,5) -1.26216
(1,2,6): (1,1,6) 8.457678E-02 (1,2,5) 4.135111E-05 (1,2,7) -6.140816E-05 (1,3,6) -0.193488 (2,2,6) -1.26216
(1,2,7): (1,1,7) 8.458162E-02 (1,2,6) 6.140816E-05 (1,2,8) -7.728442E-05 (1,3,7) -0.193495 (2,2,7) -1.26216
(1,2,8): (1,1,8) 8.458833E-02 (1,2,7) 7.728442E-05 (1,2,9) -1.028404E-04 (1,3,8) -0.193511 (2,2,8) -1.26215
(1,2,9): (1,1,9) 8.460861E-02 (1,2,8) 1.028404E-04 (1,2,10) -1.602225E-04 (1,3,9) -0.193544 (2,2,9) -1.26212
(1,2,10): (1,1,10) 8.466905E-02 (1,2,9) 1.602225E-04 (1,3,10) -0.193600 (2,2,10) -1.26217
(1,3,1): (1,2,1) 0.193612 (1,3,2) 4.103031E-04 (1,4,1) -0.368175 (2,3,1) -1.19644
(1,3,2): (1,2,2) 0.193483 (1,3,1) -4.103031E-04 (1,3,3) 5.859983E-05 (1,4,2) -0.368033 (2,3,2) -1.19681
(1,3,3): (1,2,3) 0.193472 (1,3,2) -5.859983E-05 (1,3,4) 4.556255E-07 (1,4,3) -0.368030 (2,3,3) -1.19687
(1,3,4): (1,2,4) 0.193476 (1,3,3) -4.556255E-07 (1,3,5) -2.528928E-05 (1,4,4) -0.368033 (2,3,4) -1.19689
(1,3,5): (1,2,5) 0.193483 (1,3,4) 2.528928E-05 (1,3,6) -4.657588E-05 (1,4,5) -0.368036 (2,3,5) -1.19690
(1,3,6): (1,2,6) 0.193488 (1,3,5) 4.657588E-05 (1,3,7) -6.861429E-05 (1,4,6) -0.368041 (2,3,6) -1.19690
(1,3,7): (1,2,7) 0.193495 (1,3,6) 6.861429E-05 (1,3,8) -9.336483E-05 (1,4,7) -0.368050 (2,3,7) -1.19690
(1,3,8): (1,2,8) 0.193511 (1,3,7) 9.336483E-05 (1,3,9) -1.359111E-04 (1,4,8) -0.368070 (2,3,8) -1.19688
(1,3,9): (1,2,9) 0.193544 (1,3,8) 1.359111E-04 (1,3,10) -2.159145E-04 (1,4,9) -0.368113 (2,3,9) -1.19684
(1,3,10): (1,2,10) 0.193600 (1,3,9) 2.159145E-04 (1,4,10) -0.368207 (2,3,10) -1.19690
(1,4,1): (1,3,1) 0.368175 (1,4,2) 5.501851E-04 (1,5,1) -0.697676 (2,4,1) -1.04200
(1,4,2): (1,3,2) 0.368033 (1,4,1) -5.501851E-04 (1,4,3) 6.218770E-05 (1,5,2) -0.697657 (2,4,2) -1.04252
(1,4,3): (1,3,3) 0.368030 (1,4,2) -6.218770E-05 (1,4,4) -2.464349E-06 (1,5,3) -0.697684 (2,4,3) -1.04258
(1,4,4): (1,3,4) 0.368033 (1,4,3) 2.464349E-06 (1,4,5) -2.866944E-05 (1,5,4) -0.697690 (2,4,4) -1.04259
(1,4,5): (1,3,5) 0.368036 (1,4,4) 2.866944E-05 (1,4,6) -5.090964E-05 (1,5,5) -0.697692 (2,4,5) -1.04260
(1,4,6): (1,3,6) 0.368041 (1,4,5) 5.090964E-05 (1,4,7) -7.820578E-05 (1,5,6) -0.697695 (2,4,6) -1.04260
(1,4,7): (1,3,7) 0.368050 (1,4,6) 7.820578E-05 (1,4,8) -1.134712E-04 (1,5,7) -0.697700 (2,4,7) -1.04260
(1,4,8): (1,3,8) 0.368070 (1,4,7) 1.134712E-04 (1,4,9) -1.784484E-04 (1,5,8) -0.697713 (2,4,8) -1.04256
(1,4,9): (1,3,9) 0.368113 (1,4,8) 1.784484E-04 (1,4,10) -3.093453E-04 (1,5,9) -0.697756 (2,4,9) -1.04250
(1,4,10): (1,3,10) 0.368207 (1,4,9) 3.093453E-04 (1,5,10) -0.697878 (2,4,10) -1.04266
(1,5,1): (1,4,1) 0.697676 (1,5,2) 5.659980E-04 (1,6,1) -1.38420 (2,5,1) -0.685605
(1,5,2): (1,4,2) 0.697657 (1,5,1) -5.659980E-04 (1,5,3) 3.538763E-05 (1,6,2) -1.38444 (2,5,2) -0.686205
(1,5,3): (1,4,3) 0.697684 (1,5,2) -3.538763E-05 (1,5,4) -9.021009E-06 (1,6,3) -1.38448 (2,5,3) -0.686241
(1,5,4): (1,4,4) 0.697690 (1,5,3) 9.021009E-06 (1,5,5) -3.032776E-05 (1,6,4) -1.38449 (2,5,4) -0.686251
(1,5,5): (1,4,5) 0.697692 (1,5,4) 3.032776E-05 (1,5,6) -5.352834E-05 (1,6,5) -1.38449 (2,5,5) -0.686257
(1,5,6): (1,4,6) 0.697695 (1,5,5) 5.352834E-05 (1,5,7) -8.371000E-05 (1,6,6) -1.38449 (2,5,6) -0.686259
(1,5,7): (1,4,7) 0.697700 (1,5,6) 8.371000E-05 (1,5,8) -1.264688E-04 (1,6,7) -1.38448 (2,5,7) -0.686248
(1,5,8): (1,4,8) 0.697713 (1,5,7) 1.264688E-04 (1,5,9) -2.206618E-04 (1,6,8) -1.38447 (2,5,8) -0.686205
(1,5,9): (1,4,9) 0.697756 (1,5,8) 2.206618E-04 (1,5,10) -4.297343E-04 (1,6,9) -1.38449 (2,5,9) -0.686136
(1,5,10): (1,4,10) 0.697878 (1,5,9) 4.297343E-04 (1,6,10) -1.38454 (2,5,10) -0.686443
(1,6,1): (1,5,1) 1.38420 (1,6,2) 3.161372E-04 (1,7,1) -2.89327 (2,6,1) 0.136543
(1,6,2): (1,5,2) 1.38444 (1,6,1) -3.161372E-04 (1,6,3) -1.811437E-06 (1,7,2) -2.89355 (2,6,2) 0.136167
(1,6,3): (1,5,3) 1.38448 (1,6,2) 1.811437E-06 (1,6,4) -1.662907E-05 (1,7,3) -2.89356 (2,6,3) 0.136154
(1,6,4): (1,5,4) 1.38449 (1,6,3) 1.662907E-05 (1,6,5) -2.976319E-05 (1,7,4) -2.89356 (2,6,4) 0.136150
(1,6,5): (1,5,5) 1.38449 (1,6,4) 2.976319E-05 (1,6,6) -5.015353E-05 (1,7,5) -2.89355 (2,6,5) 0.136143
(1,6,6): (1,5,6) 1.38449 (1,6,5) 5.015353E-05 (1,6,7) -7.642963E-05 (1,7,6) -2.89353 (2,6,6) 0.136139
(1,6,7): (1,5,7) 1.38448 (1,6,6) 7.642963E-05 (1,6,8) -1.193936E-04 (1,7,7) -2.89351 (2,6,7) 0.136151
(1,6,8): (1,5,8) 1.38447 (1,6,7) 1.193936E-04 (1,6,9) -2.337778E-04 (1,7,8) -2.89347 (2,6,8) 0.136191
(1,6,9): (1,5,9) 1.38449 (1,6,8) 2.337778E-04 (1,6,10) -4.823730E-04 (1,7,9) -2.89342 (2,6,9) 0.136236
(1,6,10): (1,5,10) 1.38454 (1,6,9) 4.823730E-04 (1,7,10) -2.89331 (2,6,10) 0.135955
(1,7,1): (1,6,1) 2.89327 (1,7,2) 2.936335E-05 (1,8,1) -6.31678 (2,7,1) 2.05145
(1,7,2): (1,6,2) 2.89355 (1,7,1) -2.936335E-05 (1,7,3) -1.093739E-05 (1,8,2) -6.31680 (2,7,2) 2.05142
(1,7,3): (1,6,3) 2.89356 (1,7,2) 1.093739E-05 (1,7,4) -1.376948E-05 (1,8,3) -6.31679 (2,7,3) 2.05142
(1,7,4): (1,6,4) 2.89356 (1,7,3) 1.376948E-05 (1,7,5) -2.208158E-05 (1,8,4) -6.31677 (2,7,4) 2.05142
(1,7,5): (1,6,5) 2.89355 (1,7,4) 2.208158E-05 (1,7,6) -3.529105E-05 (1,8,5) -6.31675 (2,7,5) 2.05141
(1,7,6): (1,6,6) 2.89353 (1,7,5) 3.529105E-05 (1,7,7) -5.069234E-05 (1,8,6) -6.31672 (2,7,6) 2.05140
(1,7,7): (1,6,7) 2.89351 (1,7,6) 5.069234E-05 (1,7,8) -8.067389E-05 (1,8,7) -6.31667 (2,7,7) 2.05139
(1,7,8): (1,6,8) 2.89347 (1,7,7) 8.067389E-05 (1,7,9) -1.749877E-04 (1,8,8) -6.31660 (2,7,8) 2.05141
(1,7,9): (1,6,9) 2.89342 (1,7,8) 1.749877E-04 (1,7,10) -3.782314E-04 (1,8,9) -6.31643 (2,7,9) 2.05144
(1,7,10): (1,6,10) 2.89331 (1,7,9) 3.782314E-04 (1,8,10) -6.31607 (2,7,10) 2.05142
(1,8,1): (1,7,1) 6.31678 (1,8,2) 9.668528E-06 (1,9,1) 6.31664 (2,8,1) 6.62890
(1,8,2): (1,7,2) 6.31680 (1,8,1) -9.668528E-06 (1,8,3) 1.140887E-06 (1,9,2) 6.31707 (2,8,2) 6.62894
(1,8,3): (1,7,3) 6.31679 (1,8,2) -1.140887E-06 (1,8,4) -5.817728E-07 (1,9,3) 6.31713 (2,8,3) 6.62893
(1,8,4): (1,7,4) 6.31677 (1,8,3) 5.817728E-07 (1,8,5) -1.467663E-06 (1,9,4) 6.31713 (2,8,4) 6.62892
(1,8,5): (1,7,5) 6.31675 (1,8,4) 1.467663E-06 (1,8,6) -2.370237E-06 (1,9,5) 6.31712 (2,8,5) 6.62889
(1,8,6): (1,7,6) 6.31672 (1,8,5) 2.370237E-06 (1,8,7) -3.067497E-06 (1,9,6) 6.31709 (2,8,6) 6.62886
(1,8,7): (1,7,7) 6.31667 (1,8,6) 3.067497E-06 (1,8,8) -4.004560E-06 (1,9,7) 6.31705 (2,8,7) 6.62882
(1,8,8): (1,7,8) 6.31660 (1,8,7) 4.004560E-06 (1,8,9) -7.808442E-06 (1,9,8) 6.31700 (2,8,8) 6.62878
(1,8,9): (1,7,9) 6.31643 (1,8,8) 7.808442E-06 (1,8,10) -1.963234E-05 (1,9,9) 6.31692 (2,8,9) 6.62873
(1,8,10): (1,7,10) 6.31607 (1,8,9) 1.963234E-05 (1,9,10) 6.31680 (2,8,10) 6.62869
(1,9,1): (1,8,1) -6.31664 (1,9,2) 4.533868E-04 (1,10,1) 2.89367 (2,9,1) 2.05252
(1,9,2): (1,8,2) -6.31707 (1,9,1) -4.533868E-04 (1,9,3) 5.635635E-05 (1,10,2) 2.89384 (2,9,2) 2.05212
(1,9,3): (1,8,3) -6.31713 (1,9,2) -5.635635E-05 (1,9,4) 1.255714E-06 (1,10,3) 2.89383 (2,9,3) 2.05207
(1,9,4): (1,8,4) -6.31713 (1,9,3) -1.255714E-06 (1,9,5) -1.533473E-05 (1,10,4) 2.89383 (2,9,4) 2.05205
(1,9,5): (1,8,5) -6.31712 (1,9,4) 1.533473E-05 (1,9,6) -2.821454E-05 (1,10,5) 2.89383 (2,9,5) 2.05204
(1,9,6): (1,8,6) -6.31709 (1,9,5) 2.821454E-05 (1,9,7) -4.194357E-05 (1,10,6) 2.89381 (2,9,6) 2.05203
(1,9,7): (1,8,7) -6.31705 (1,9,6) 4.194357E-05 (1,9,8) -5.927360E-05 (1,10,7) 2.89379 (2,9,7) 2.05202
(1,9,8): (1,8,8) -6.31700 (1,9,7) 5.927360E-05 (1,9,9) -9.038638E-05 (1,10,8) 2.89374 (2,9,8) 2.05202
(1,9,9): (1,8,9) -6.31692 (1,9,8) 9.038638E-05 (1,9,10) -1.389932E-04 (1,10,9) 2.89366 (2,9,9) 2.05204
(1,9,10): (1,8,10) -6.31680 (1,9,9) 1.389932E-04 (1,10,10) 2.89348 (2,9,10) 2.05190
(1,10,1): (1,9,1) -2.89367 (1,10,2) 6.294702E-04 (1,11,1) 1.38493 (2,10,1) 0.137220
(1,10,2): (1,9,2) -2.89384 (1,10,1) -6.294702E-04 (1,10,3) 5.369082E-05 (1,11,2) 1.38478 (2,10,2) 0.136577
(1,10,3): (1,9,3) -2.89383 (1,10,2) -5.369082E-05 (1,10,4) 2.044063E-07 (1,11,3) 1.38476 (2,10,3) 0.136531
(1,10,4): (1,9,4) -2.89383 (1,10,3) -2.044063E-07 (1,10,5) -2.163246E-05 (1,11,4) 1.38476 (2,10,4) 0.136522
(1,10,5): (1,9,5) -2.89383 (1,10,4) 2.163246E-05 (1,10,6) -4.403782E-05 (1,11,5) 1.38475 (2,10,5) 0.136513
(1,10,6): (1,9,6) -2.89381 (1,10,5) 4.403782E-05 (1,10,7) -6.757621E-05 (1,11,6) 1.38474 (2,10,6) 0.136507
(1,10,7): (1,9,7) -2.89379 (1,10,6) 6.757621E-05 (1,10,8) -1.022889E-04 (1,11,7) 1.38472 (2,10,7) 0.136513
(1,10,8): (1,9,8) -2.89374 (1,10,7) 1.022889E-04 (1,10,9) -1.777055E-04 (1,11,8) 1.38469 (2,10,8) 0.136536
(1,10,9): (1,9,9) -2.89366 (1,10,8) 1.777055E-04 (1,10,10) -3.246081E-04 (1,11,9) 1.38460 (2,10,9) 0.136564
(1,10,10): (1,9,10) -2.89348 (1,10,9) 3.246081E-04 (1,11,10) 1.38441 (2,10,10) 0.136208
(1,11,1): (1,10,1) -1.38493 (1,11,2) 4.861043E-04 (1,12,1) 0.698117 (2,11,1) -0.685939
(1,11,2): (1,10,2) -1.38478 (1,11,1) -4.861043E-04 (1,11,3) 3.603314E-05 (1,12,2) 0.697942 (2,11,2) -0.686457
(1,11,3): (1,10,3) -1.38476 (1,11,2) -3.603314E-05 (1,11,4) -3.199287E-06 (1,12,3) 0.697931 (2,11,3) -0.686483
(1,11,4): (1,10,4) -1.38476 (1,11,3) 3.199287E-06 (1,11,5) -3.015023E-05 (1,12,4) 0.697922 (2,11,4) -0.686492
(1,11,5): (1,10,5) -1.38475 (1,11,4) 3.015023E-05 (1,11,6) -5.740293E-05 (1,12,5) 0.697910 (2,11,5) -0.686500
(1,11,6): (1,10,6) -1.38474 (1,11,5) 5.740293E-05 (1,11,7) -8.564965E-05 (1,12,6) 0.697900 (2,11,6) -0.686500
(1,11,7): (1,10,7) -1.38472 (1,11,6) 8.564965E-05 (1,11,8) -1.362405E-04 (1,12,7) 0.697892 (2,11,7) -0.686482
(1,11,8): (1,10,8) -1.38469 (1,11,7) 1.362405E-04 (1,11,9) -2.621520E-04 (1,12,8) 0.697884 (2,11,8) -0.686437
(1,11,9): (1,10,9) -1.38460 (1,11,8) 2.621520E-04 (1,11,10) -5.223468E-04 (1,12,9) 0.697872 (2,11,9) -0.686375
(1,11,10): (1,10,10) -1.38441 (1,11,9) 5.223468E-04 (1,12,10) 0.697873 (2,11,10) -0.686631
(1,12,1): (1,11,1) -0.698117 (1,12,2) 3.145998E-04 (1,13,1) 0.368326 (2,12,1) -1.04271
(1,12,2): (1,11,2) -0.697942 (1,12,1) -3.145998E-04 (1,12,3) 2.413445E-05 (1,13,2) 0.368231 (2,12,2) -1.04304
(1,12,3): (1,11,3) -0.697931 (1,12,2) -2.413445E-05 (1,12,4) -1.294423E-05 (1,13,3) 0.368217 (2,12,3) -1.04305
(1,12,4): (1,11,4) -0.697922 (1,12,3) 1.294423E-05 (1,12,5) -4.195156E-05 (1,13,4) 0.368204 (2,12,4) -1.04306
(1,12,5): (1,11,5) -0.697910 (1,12,4) 4.195156E-05 (1,12,6) -6.737676E-05 (1,13,5) 0.368194 (2,12,5) -1.04307
(1,12,6): (1,11,6) -0.697900 (1,12,5) 6.737676E-05 (1,12,7) -9.362845E-05 (1,13,6) 0.368189 (2,12,6) -1.04306
(1,12,7): (1,11,7) -0.697892 (1,12,6) 9.362845E-05 (1,12,8) -1.445078E-04 (1,13,7) 0.368187 (2,12,7) -1.04304
(1,12,8): (1,11,8) -0.697884 (1,12,7) 1.445078E-04 (1,12,9) -2.746606E-04 (1,13,8) 0.368194 (2,12,8) -1.04299
(1,12,9): (1,11,9) -0.697872 (1,12,8) 2.746606E-04 (1,12,10) -5.237401E-04 (1,13,9) 0.368230 (2,12,9) -1.04290
(1,12,10): (1,11,10) -0.697873 (1,12,9) 5.237401E-04 (1,13,10) 0.368335 (2,12,10) -1.04302
(1,13,1): (1,12,1) -0.368326 (1,13,2) 2.196515E-04 (1,14,1) 0.193639 (2,13,1) -1.19705
(1,13,2): (1,12,2) -0.368231 (1,13,1) -2.196515E-04 (1,13,3) 1.023088E-05 (1,14,2) 0.193587 (2,13,2) -1.19726
(1,13,3): (1,12,3) -0.368217 (1,13,2) -1.023088E-05 (1,13,4) -2.645488E-05 (1,14,3) 0.193570 (2,13,3) -1.19728
(1,13,4): (1,12,4) -0.368204 (1,13,3) 2.645488E-05 (1,13,5) -5.127440E-05 (1,14,4) 0.193561 (2,13,4) -1.19728
(1,13,5): (1,12,5) -0.368194 (1,13,4) 5.127440E-05 (1,13,6) -7.249591E-05 (1,14,5) 0.193558 (2,13,5) -1.19728
(1,13,6): (1,12,6) -0.368189 (1,13,5) 7.249591E-05 (1,13,7) -9.575951E-05 (1,14,6) 0.193556 (2,13,6) -1.19727
(1,13,7): (1,12,7) -0.368187 (1,13,6) 9.575951E-05 (1,13,8) -1.376348E-04 (1,14,7) 0.193553 (2,13,7) -1.19725
(1,13,8): (1,12,8) -0.368194 (1,13,7) 1.376348E-04 (1,13,9) -2.387005E-04 (1,14,8) 0.193557 (2,13,8) -1.19721
(1,13,9): (1,12,9) -0.368230 (1,13,8) 2.387005E-04 (1,13,10) -4.200843E-04 (1,14,9) 0.193591 (2,13,9) -1.19713
(1,13,10): (1,12,10) -0.368335 (1,13,9) 4.200843E-04 (1,14,10) 0.193688 (2,13,10) -1.19719
(1,14,1): (1,13,1) -0.193639 (1,14,2) 1.673436E-04 (1,15,1) 8.469035E-02 (2,14,1) -1.26222
(1,14,2): (1,13,2) -0.193587 (1,14,1) -1.673436E-04 (1,14,3) -6.517308E-06 (1,15,2) 8.462499E-02 (2,14,2) -1.26239
(1,14,3): (1,13,3) -0.193570 (1,14,2) 6.517308E-06 (1,14,4) -3.512651E-05 (1,15,3) 8.461570E-02 (2,14,3) -1.26240
(1,14,4): (1,13,4) -0.193561 (1,14,3) 3.512651E-05 (1,14,5) -5.427261E-05 (1,15,4) 8.461458E-02 (2,14,4) -1.26240
(1,14,5): (1,13,5) -0.193558 (1,14,4) 5.427261E-05 (1,14,6) -7.475494E-05 (1,15,5) 8.461451E-02 (2,14,5) -1.26239
(1,14,6): (1,13,6) -0.193556 (1,14,5) 7.475494E-05 (1,14,7) -9.879877E-05 (1,15,6) 8.461214E-02 (2,14,6) -1.26238
(1,14,7): (1,13,7) -0.193553 (1,14,6) 9.879877E-05 (1,14,8) -1.335902E-04 (1,15,7) 8.460840E-02 (2,14,7) -1.26237
(1,14,8): (1,13,8) -0.193557 (1,14,7) 1.335902E-04 (1,14,9) -2.048943E-04 (1,15,8) 8.460842E-02 (2,14,8) -1.26234
(1,14,9): (1,13,9) -0.193591 (1,14,8) 2.048943E-04 (1,14,10) -3.234058E-04 (1,15,9) 8.462299E-02 (2,14,9) -1.26228
(1,14,10): (1,13,10) -0.193688 (1,14,9) 3.234058E-04 (1,15,10) 8.466978E-02 (2,14,10) -1.26233
(1,15,1): (1,14,1) -8.469035E-02 (1,15,2) 1.020249E-04 (2,15,1) -1.28616
(1,15,2): (1,14,2) -8.462499E-02 (1,15,1) -1.020249E-04 (1,15,3) -1.574957E-05 (2,15,2) -1.28628
(1,15,3): (1,14,3) -8.461570E-02 (1,15,2) 1.574957E-05 (1,15,4) -3.624763E-05 (2,15,3) -1.28628
(1,15,4): (1,14,4) -8.461458E-02 (1,15,3) 3.624763E-05 (1,15,5) -5.435784E-05 (2,15,4) -1.28628
(1,15,5): (1,14,5) -8.461451E-02 (1,15,4) 5.435784E-05 (1,15,6) -7.711863E-05 (2,15,5) -1.28627
(1,15,6): (1,14,6) -8.461214E-02 (1,15,5) 7.711863E-05 (1,15,7) -1.024872E-04 (2,15,6) -1.28627
(1,15,7): (1,14,7) -8.460840E-02 (1,15,6) 1.024872E-04 (1,15,8) -1.335377E-04 (2,15,7) -1.28625
(1,15,8): (1,14,8) -8.460842E-02 (1,15,7) 1.335377E-04 (1,15,9) -1.903366E-04 (2,15,8) -1.28622
(1,15,9): (1,14,9) -8.462299E-02 (1,15,8) 1.903366E-04 (1,15,10) -2.768318E-04 (2,15,9) -1.28618
(1,15,10): (1,14,10) -8.466978E-02 (1,15,9) 2.768318E-04 (2,15,10) -1.28629
(2,1,1): (1,1,1) 1.28565 (2,1,2) 1.840737E-06 (2,2,1) -1.235793E-04 (3,1,1) -1.28646
(2,1,2): (1,1,2) 1.28587 (2,1,1) -1.840737E-06 (2,1,3) 3.064503E-07 (2,2,2) -1.235684E-04 (3,1,2) -1.28651
(2,1,3): (1,1,3) 1.28590 (2,1,2) -3.064503E-07 (2,1,4) -7.288348E-08 (2,2,3) -1.235690E-04 (3,1,3) -1.28654
(2,1,4): (1,1,4) 1.28592 (2,1,3) 7.288348E-08 (2,1,5) -4.153408E-07 (2,2,4) -1.235774E-04 (3,1,4) -1.28657
(2,1,5): (1,1,5) 1.28593 (2,1,4) 4.153408E-07 (2,1,6) -7.854988E-07 (2,2,5) -1.235875E-04 (3,1,5) -1.28660
(2,1,6): (1,1,6) 1.28594 (2,1,5) 7.854988E-07 (2,1,7) -1.069539E-06 (2,2,6) -1.235942E-04 (3,1,6) -1.28661
(2,1,7): (1,1,7) 1.28594 (2,1,6) 1.069539E-06 (2,1,8) -1.152093E-06 (2,2,7) -1.235976E-04 (3,1,7) -1.28661
(2,1,8): (1,1,8) 1.28593 (2,1,7) 1.152093E-06 (2,1,9) -1.244898E-06 (2,2,8) -1.236058E-04 (3,1,8) -1.28661
(2,1,9): (1,1,9) 1.28591 (2,1,8) 1.244898E-06 (2,1,10) -2.835088E-06 (2,2,9) -1.236354E-04 (3,1,9) -1.28660
(2,1,10): (1,1,10) 1.28599 (2,1,9) 2.835088E-06 (2,2,10) -1.237044E-04 (3,1,10) -1.28645
(2,2,1): (1,2,1) 1.26183 (2,1,1) 1.235793E-04 (2,2,2) 1.950184E-06 (2,3,1) -2.689902E-04 (3,2,1) -1.26282
(2,2,2): (1,2,2) 1.26208 (2,1,2) 1.235684E-04 (2,2,1) -1.950184E-06 (2,2,3) 3.003498E-07 (2,3,2) -2.689189E-04 (3,2,2) -1.26287
(2,2,3): (1,2,3) 1.26212 (2,1,3) 1.235690E-04 (2,2,2) -3.003498E-07 (2,2,4) -1.564456E-07 (2,3,3) -2.689139E-04 (3,2,3) -1.26290
(2,2,4): (1,2,4) 1.26214 (2,1,4) 1.235774E-04 (2,2,3) 1.564456E-07 (2,2,5) -5.163288E-07 (2,3,4) -2.689222E-04 (3,2,4) -1.26293
(2,2,5): (1,2,5) 1.26216 (2,1,5) 1.235875E-04 (2,2,4) 5.163288E-07 (2,2,6) -8.531843E-07 (2,3,5) -2.689289E-04 (3,2,5) -1.26295
(2,2,6): (1,2,6) 1.26216 (2,1,6) 1.235942E-04 (2,2,5) 8.531843E-07 (2,2,7) -1.103365E-06 (2,3,6) -2.689342E-04 (3,2,6) -1.26295
(2,2,7): (1,2,7) 1.26216 (2,1,7) 1.235976E-04 (2,2,6) 1.103365E-06 (2,2,8) -1.234475E-06 (2,3,7) -2.689448E-04 (3,2,7) -1.26295
(2,2,8): (1,2,8) 1.26215 (2,1,8) 1.236058E-04 (2,2,7) 1.234475E-06 (2,2,9) -1.540716E-06 (2,3,8) -2.689664E-04 (3,2,8) -1.26295
(2,2,9): (1,2,9) 1.26212 (2,1,9) 1.236354E-04 (2,2,8) 1.540716E-06 (2,2,10) -3.525055E-06 (2,3,9) -2.690046E-04 (3,2,9) -1.26292
(2,2,10): (1,2,10) 1.26217 (2,1,10) 1.237044E-04 (2,2,9) 3.525055E-06 (2,3,10) -2.691368E-04 (3,2,10) -1.26275
(2,3,1): (1,3,1) 1.19644 (2,2,1) 2.689902E-04 (2,3,2) 2.663304E-06 (2,4,1) -4.736513E-04 (3,3,1) -1.19800
(2,3,2): (1,3,2) 1.19681 (2,2,2) 2.689189E-04 (2,3,1) -2.663304E-06 (2,3,3) 3.502042E-07 (2,4,2) -4.735895E-04 (3,3,2) -1.19810
(2,3,3): (1,3,3) 1.19687 (2,2,3) 2.689139E-04 (2,3,2) -3.502042E-07 (2,3,4) -2.397745E-07 (2,4,3) -4.735837E-04 (3,3,3) -1.19813
(2,3,4): (1,3,4) 1.19689 (2,2,4) 2.689222E-04 (2,3,3) 2.397745E-07 (2,3,5) -5.837614E-07 (2,4,4) -4.735860E-04 (3,3,4) -1.19815
(2,3,5): (1,3,5) 1.19690 (2,2,5) 2.689289E-04 (2,3,4) 5.837614E-07 (2,3,6) -9.058160E-07 (2,4,5) -4.735889E-04 (3,3,5) -1.19817
(2,3,6): (1,3,6) 1.19690 (2,2,6) 2.689342E-04 (2,3,5) 9.058160E-07 (2,3,7) -1.208861E-06 (2,4,6) -4.735958E-04 (3,3,6) -1.19817
(2,3,7): (1,3,7) 1.19690 (2,2,7) 2.689448E-04 (2,3,6) 1.208861E-06 (2,3,8) -1.450540E-06 (2,4,7) -4.736095E-04 (3,3,7) -1.19817
(2,3,8): (1,3,8) 1.19688 (2,2,8) 2.689664E-04 (2,3,7) 1.450540E-06 (2,3,9) -1.922824E-06 (2,4,8) -4.736312E-04 (3,3,8) -1.19815
(2,3,9): (1,3,9) 1.19684 (2,2,9) 2.690046E-04 (2,3,8) 1.922824E-06 (2,3,10) -4.847695E-06 (2,4,9) -4.736820E-04 (3,3,9) -1.19810
(2,3,10): (1,3,10) 1.19690 (2,2,10) 2.691368E-04 (2,3,9) 4.847695E-06 (2,4,10) -4.739707E-04 (3,3,10) -1.19784
(2,4,1): (1,4,1) 1.04200 (2,3,1) 4.736513E-04 (2,4,2) 3.281233E-06 (2,5,1) -8.192776E-04 (3,4,1) -1.04424
(2,4,2): (1,4,2) 1.04252 (2,3,2) 4.735895E-04 (2,4,1) -3.281233E-06 (2,4,3) 4.084410E-07 (2,5,2) -8.193419E-04 (3,4,2) -1.04439
(2,4,3): (1,4,3) 1.04258 (2,3,3) 4.735837E-04 (2,4,2) -4.084410E-07 (2,4,4) -2.630526E-07 (2,5,3) -8.193642E-04 (3,4,3) -1.04443
(2,4,4): (1,4,4) 1.04259 (2,3,4) 4.735860E-04 (2,4,3) 2.630526E-07 (2,4,5) -6.128554E-07 (2,5,4) -8.193679E-04 (3,4,4) -1.04445
(2,4,5): (1,4,5) 1.04260 (2,3,5) 4.735889E-04 (2,4,4) 6.128554E-07 (2,4,6) -9.751196E-07 (2,5,5) -8.193699E-04 (3,4,5) -1.04446
(2,4,6): (1,4,6) 1.04260 (2,3,6) 4.735958E-04 (2,4,5) 9.751196E-07 (2,4,7) -1.345997E-06 (2,5,6) -8.193747E-04 (3,4,6) -1.04446
(2,4,7): (1,4,7) 1.04260 (2,3,7) 4.736095E-04 (2,4,6) 1.345997E-06 (2,4,8) -1.667227E-06 (2,5,7) -8.193793E-04 (3,4,7) -1.04444
(2,4,8): (1,4,8) 1.04256 (2,3,8) 4.736312E-04 (2,4,7) 1.667227E-06 (2,4,9) -2.431255E-06 (2,5,8) -8.193897E-04 (3,4,8) -1.04441
(2,4,9): (1,4,9) 1.04250 (2,3,9) 4.736820E-04 (2,4,8) 2.431255E-06 (2,4,10) -7.734127E-06 (2,5,9) -8.194643E-04 (3,4,9) -1.04433
(2,4,10): (1,4,10) 1.04266 (2,3,10) 4.739707E-04 (2,4,9) 7.734127E-06 (2,5,10) -8.198808E-04 (3,4,10) -1.04388
(2,5,1): (1,5,1) 0.685605 (2,4,1) 8.192776E-04 (2,5,2) 2.638656E-06 (2,6,1) -1.493976E-03 (3,5,1) -0.687960
(2,5,2): (1,5,2) 0.686205 (2,4,2) 8.193419E-04 (2,5,1) -2.638656E-06 (2,5,3) 1.848731E-07 (2,6,2) -1.494141E-03 (3,5,2) -0.688069
(2,5,3): (1,5,3) 0.686241 (2,4,3) 8.193642E-04 (2,5,2) -1.848731E-07 (2,5,4) -2.999206E-07 (2,6,3) -1.494179E-03 (3,5,3) -0.688097
(2,5,4): (1,5,4) 0.686251 (2,4,4) 8.193679E-04 (2,5,3) 2.999206E-07 (2,5,5) -6.324909E-07 (2,6,4) -1.494186E-03 (3,5,4) -0.688112
(2,5,5): (1,5,5) 0.686257 (2,4,5) 8.193699E-04 (2,5,4) 6.324909E-07 (2,5,6) -1.023101E-06 (2,6,5) -1.494186E-03 (3,5,5) -0.688122
(2,5,6): (1,5,6) 0.686259 (2,4,6) 8.193747E-04 (2,5,5) 1.023101E-06 (2,5,7) -1.391634E-06 (2,6,6) -1.494182E-03 (3,5,6) -0.688119
(2,5,7): (1,5,7) 0.686248 (2,4,7) 8.193793E-04 (2,5,6) 1.391634E-06 (2,5,8) -1.771520E-06 (2,6,7) -1.494170E-03 (3,5,7) -0.688099
(2,5,8): (1,5,8) 0.686205 (2,4,8) 8.193897E-04 (2,5,7) 1.771520E-06 (2,5,9) -3.177186E-06 (2,6,8) -1.494163E-03 (3,5,8) -0.688061
(2,5,9): (1,5,9) 0.686136 (2,4,9) 8.194643E-04 (2,5,8) 3.177186E-06 (2,5,10) -1.189930E-05 (2,6,9) -1.494222E-03 (3,5,9) -0.687936
(2,5,10): (1,5,10) 0.686443 (2,4,10) 8.198808E-04 (2,5,9) 1.189930E-05 (2,6,10) -1.494295E-03 (3,5,10) -0.687201
(2,6,1): (1,6,1) -0.136543 (2,5,1) 1.493976E-03 (2,6,2) 9.918222E-07 (2,7,1) -2.948538E-03 (3,6,1) 0.135889
(2,6,2): (1,6,2) -0.136167 (2,5,2) 1.494141E-03 (2,6,1) -9.918222E-07 (2,6,3) -1.976022E-07 (2,7,2) -2.948610E-03 (3,6,2) 0.135887
(2,6,3): (1,6,3) -0.136154 (2,5,3) 1.494179E-03 (2,6,2) 1.976022E-07 (2,6,4) -3.675725E-07 (2,7,3) -2.948611E-03 (3,6,3) 0.135885
(2,6,4): (1,6,4) -0.136150 (2,5,4) 1.494186E-03 (2,6,3) 3.675725E-07 (2,6,5) -6.381301E-07 (2,7,4) -2.948609E-03 (3,6,4) 0.135876
(2,6,5): (1,6,5) -0.136143 (2,5,5) 1.494186E-03 (2,6,4) 6.381301E-07 (2,6,6) -9.828306E-07 (2,7,5) -2.948602E-03 (3,6,5) 0.135869
(2,6,6): (1,6,6) -0.136139 (2,5,6) 1.494182E-03 (2,6,5) 9.828306E-07 (2,6,7) -1.268442E-06 (2,7,6) -2.948584E-03 (3,6,6) 0.135871
(2,6,7): (1,6,7) -0.136151 (2,5,7) 1.494170E-03 (2,6,6) 1.268442E-06 (2,6,8) -1.698326E-06 (2,7,7) -2.948556E-03 (3,6,7) 0.135882
(2,6,8): (1,6,8) -0.136191 (2,5,8) 1.494163E-03 (2,6,7) 1.698326E-06 (2,6,9) -3.772368E-06 (2,7,8) -2.948516E-03 (3,6,8) 0.135916
(2,6,9): (1,6,9) -0.136236 (2,5,9) 1.494222E-03 (2,6,8) 3.772368E-06 (2,6,10) -1.262245E-05 (2,7,9) -2.948431E-03 (3,6,9) 0.136081
(2,6,10): (1,6,10) -0.135955 (2,5,10) 1.494295E-03 (2,6,9) 1.262245E-05 (2,7,10) -2.947918E-03 (3,6,10) 0.136861
(2,7,1): (1,7,1) -2.05145 (2,6,1) 2.948538E-03 (2,7,2) 2.716852E-07 (2,8,1) -6.337401E-03 (3,7,1) 2.05437
(2,7,2): (1,7,2) -2.05142 (2,6,2) 2.948610E-03 (2,7,1) -2.716852E-07 (2,7,3) -2.094645E-07 (2,8,2) -6.337357E-03 (3,7,2) 2.05442
(2,7,3): (1,7,3) -2.05142 (2,6,3) 2.948611E-03 (2,7,2) 2.094645E-07 (2,7,4) -3.458393E-07 (2,8,3) -6.337340E-03 (3,7,3) 2.05443
(2,7,4): (1,7,4) -2.05142 (2,6,4) 2.948609E-03 (2,7,3) 3.458393E-07 (2,7,5) -5.705125E-07 (2,8,4) -6.337327E-03 (3,7,4) 2.05442
(2,7,5): (1,7,5) -2.05141 (2,6,5) 2.948602E-03 (2,7,4) 5.705125E-07 (2,7,6) -8.077890E-07 (2,8,5) -6.337305E-03 (3,7,5) 2.05441
(2,7,6): (1,7,6) -2.05140 (2,6,6) 2.948584E-03 (2,7,5) 8.077890E-07 (2,7,7) -9.813313E-07 (2,8,6) -6.337271E-03 (3,7,6) 2.05440
(2,7,7): (1,7,7) -2.05139 (2,6,7) 2.948556E-03 (2,7,6) 9.813313E-07 (2,7,8) -1.305643E-06 (2,8,7) -6.337228E-03 (3,7,7) 2.05439
(2,7,8): (1,7,8) -2.05141 (2,6,8) 2.948516E-03 (2,7,7) 1.305643E-06 (2,7,9) -2.919584E-06 (2,8,8) -6.337159E-03 (3,7,8) 2.05440
(2,7,9): (1,7,9) -2.05144 (2,6,9) 2.948431E-03 (2,7,8) 2.919584E-06 (2,7,10) -7.488204E-06 (2,8,9) -6.336945E-03 (3,7,9) 2.05450
(2,7,10): (1,7,10) -2.05142 (2,6,10) 2.947918E-03 (2,7,9) 7.488204E-06 (2,8,10) -6.336293E-03 (3,7,10) 2.05491
(2,8,1): (1,8,1) -6.62890 (2,7,1) 6.337401E-03 (2,8,2) 7.168299E-07 (2,9,1) 6.338512E-03 (3,8,1) 6.61617
(2,8,2): (1,8,2) -6.62894 (2,7,2) 6.337357E-03 (2,8,1) -7.168299E-07 (2,8,3) -4.231240E-08 (2,9,2) 6.338782E-03 (3,8,2) 6.61621
(2,8,3): (1,8,3) -6.62893 (2,7,3) 6.337340E-03 (2,8,2) 4.231240E-08 (2,8,4) -2.128934E-07 (2,9,3) 6.338828E-03 (3,8,3) 6.61620
(2,8,4): (1,8,4) -6.62892 (2,7,4) 6.337327E-03 (2,8,3) 2.128934E-07 (2,8,5) -3.496868E-07 (2,9,4) 6.338833E-03 (3,8,4) 6.61619
(2,8,5): (1,8,5) -6.62889 (2,7,5) 6.337305E-03 (2,8,4) 3.496868E-07 (2,8,6) -4.718422E-07 (2,9,5) 6.338824E-03 (3,8,5) 6.61616
(2,8,6): (1,8,6) -6.62886 (2,7,6) 6.337271E-03 (2,8,5) 4.718422E-07 (2,8,7) -5.528083E-07 (2,9,6) 6.338799E-03 (3,8,6) 6.61613
(2,8,7): (1,8,7) -6.62882 (2,7,7) 6.337228E-03 (2,8,6) 5.528083E-07 (2,8,8) -6.124862E-07 (2,9,7) 6.338762E-03 (3,8,7) 6.61609
(2,8,8): (1,8,8) -6.62878 (2,7,8) 6.337159E-03 (2,8,7) 6.124862E-07 (2,8,9) -7.770060E-07 (2,9,8) 6.338713E-03 (3,8,8) 6.61605
(2,8,9): (1,8,9) -6.62873 (2,7,9) 6.336945E-03 (2,8,8) 7.770060E-07 (2,8,10) -9.713676E-07 (2,9,9) 6.338643E-03 (3,8,9) 6.61600
(2,8,10): (1,8,10) -6.62869 (2,7,10) 6.336293E-03 (2,8,9) 9.713676E-07 (2,9,10) 6.338299E-03 (3,8,10) 6.61594
(2,9,1): (1,9,1) -2.05252 (2,8,1) -6.338512E-03 (2,9,2) 3.420166E-06 (2,10,1) 2.948770E-03 (3,9,1) 2.05388
(2,9,2): (1,9,2) -2.05212 (2,8,2) -6.338782E-03 (2,9,1) -3.420166E-06 (2,9,3) 4.145940E-07 (2,10,2) 2.948762E-03 (3,9,2) 2.05374
(2,9,3): (1,9,3) -2.05207 (2,8,3) -6.338828E-03 (2,9,2) -4.145940E-07 (2,9,4) -1.579843E-07 (2,10,3) 2.948761E-03 (3,9,3) 2.05371
(2,9,4): (1,9,4) -2.05205 (2,8,4) -6.338833E-03 (2,9,3) 1.579843E-07 (2,9,5) -4.442196E-07 (2,10,4) 2.948766E-03 (3,9,4) 2.05369
(2,9,5): (1,9,5) -2.05204 (2,8,5) -6.338824E-03 (2,9,4) 4.442196E-07 (2,9,6) -7.180746E-07 (2,10,5) 2.948759E-03 (3,9,5) 2.05367
(2,9,6): (1,9,6) -2.05203 (2,8,6) -6.338799E-03 (2,9,5) 7.180746E-07 (2,9,7) -9.242073E-07 (2,10,6) 2.948741E-03 (3,9,6) 2.05366
(2,9,7): (1,9,7) -2.05202 (2,8,7) -6.338762E-03 (2,9,6) 9.242073E-07 (2,9,8) -1.098516E-06 (2,10,7) 2.948714E-03 (3,9,7) 2.05364
(2,9,8): (1,9,8) -2.05202 (2,8,8) -6.338713E-03 (2,9,7) 1.098516E-06 (2,9,9) -1.482931E-06 (2,10,8) 2.948664E-03 (3,9,8) 2.05364
(2,9,9): (1,9,9) -2.05204 (2,8,9) -6.338643E-03 (2,9,8) 1.482931E-06 (2,9,10) -4.412941E-06 (2,10,9) 2.948518E-03 (3,9,9) 2.05364
(2,9,10): (1,9,10) -2.05190 (2,8,10) -6.338299E-03 (2,9,9) 4.412941E-06 (2,10,10) 2.947893E-03 (3,9,10) 2.05383
(2,10,1): (1,10,1) -0.137220 (2,9,1) -2.948770E-03 (2,10,2) 3.341343E-06 (2,11,1) 1.493998E-03 (3,10,1) 0.135542
(2,10,2): (1,10,2) -0.136577 (2,9,2) -2.948762E-03 (2,10,1) -3.341343E-06 (2,10,3) 4.026685E-07 (2,11,2) 1.493886E-03 (3,10,2) 0.135415
(2,10,3): (1,10,3) -0.136531 (2,9,3) -2.948761E-03 (2,10,2) -4.026685E-07 (2,10,4) -1.102275E-07 (2,11,3) 1.493879E-03 (3,10,3) 0.135388
(2,10,4): (1,10,4) -0.136522 (2,9,4) -2.948766E-03 (2,10,3) 1.102275E-07 (2,10,5) -5.179597E-07 (2,11,4) 1.493872E-03 (3,10,4) 0.135369
(2,10,5): (1,10,5) -0.136513 (2,9,5) -2.948759E-03 (2,10,4) 5.179597E-07 (2,10,6) -8.983851E-07 (2,11,5) 1.493858E-03 (3,10,5) 0.135355
(2,10,6): (1,10,6) -0.136507 (2,9,6) -2.948741E-03 (2,10,5) 8.983851E-07 (2,10,7) -1.186871E-06 (2,11,6) 1.493842E-03 (3,10,6) 0.135351
(2,10,7): (1,10,7) -0.136513 (2,9,7) -2.948714E-03 (2,10,6) 1.186871E-06 (2,10,8) -1.601583E-06 (2,11,7) 1.493825E-03 (3,10,7) 0.135354
(2,10,8): (1,10,8) -0.136536 (2,9,8) -2.948664E-03 (2,10,7) 1.601583E-06 (2,10,9) -2.942955E-06 (2,11,8) 1.493794E-03 (3,10,8) 0.135378
(2,10,9): (1,10,9) -0.136564 (2,9,9) -2.948518E-03 (2,10,8) 2.942955E-06 (2,10,10) -1.066693E-05 (2,11,9) 1.493685E-03 (3,10,9) 0.135474
(2,10,10): (1,10,10) -0.136208 (2,9,10) -2.947893E-03 (2,10,9) 1.066693E-05 (2,11,10) 1.493457E-03 (3,10,10) 0.136099
(2,11,1): (1,11,1) 0.685939 (2,10,1) -1.493998E-03 (2,11,2) 2.222586E-06 (2,12,1) 8.195753E-04 (3,11,1) -0.688019
(2,11,2): (1,11,2) 0.686457 (2,10,2) -1.493886E-03 (2,11,1) -2.222586E-06 (2,11,3) 3.308486E-07 (2,12,2) 8.195138E-04 (3,11,2) -0.688072
(2,11,3): (1,11,3) 0.686483 (2,10,3) -1.493879E-03 (2,11,2) -3.308486E-07 (2,11,4) -1.747693E-07 (2,12,3) 8.194992E-04 (3,11,3) -0.688094
(2,11,4): (1,11,4) 0.686492 (2,10,4) -1.493872E-03 (2,11,3) 1.747693E-07 (2,11,5) -6.615274E-07 (2,12,4) 8.194805E-04 (3,11,4) -0.688110
(2,11,5): (1,11,5) 0.686500 (2,10,5) -1.493858E-03 (2,11,4) 6.615274E-07 (2,11,6) -1.054914E-06 (2,12,5) 8.194640E-04 (3,11,5) -0.688116
(2,11,6): (1,11,6) 0.686500 (2,10,6) -1.493842E-03 (2,11,5) 1.054914E-06 (2,11,7) -1.355232E-06 (2,12,6) 8.194529E-04 (3,11,6) -0.688112
(2,11,7): (1,11,7) 0.686482 (2,10,7) -1.493825E-03 (2,11,6) 1.355232E-06 (2,11,8) -1.916740E-06 (2,12,7) 8.194448E-04 (3,11,7) -0.688100
(2,11,8): (1,11,8) 0.686437 (2,10,8) -1.493794E-03 (2,11,7) 1.916740E-06 (2,11,9) -4.029433E-06 (2,12,8) 8.194425E-04 (3,11,8) -0.688061
(2,11,9): (1,11,9) 0.686375 (2,10,9) -1.493685E-03 (2,11,8) 4.029433E-06 (2,11,10) -1.294688E-05 (2,12,9) 8.194581E-04 (3,11,9) -0.687900
(2,11,10): (1,11,10) 0.686631 (2,10,10) -1.493457E-03 (2,11,9) 1.294688E-05 (2,12,10) 8.196314E-04 (3,11,10) -0.687131
(2,12,1): (1,12,1) 1.04271 (2,11,1) -8.195753E-04 (2,12,2) 1.607573E-06 (2,13,1) 4.740700E-04 (3,12,1) -1.04426
(2,12,2): (1,12,2) 1.04304 (2,11,2) -8.195138E-04 (2,12,1) -1.607573E-06 (2,12,3) 1.849935E-07 (2,13,2) 4.740361E-04 (3,12,2) -1.04428
(2,12,3): (1,12,3) 1.04305 (2,11,3) -8.194992E-04 (2,12,2) -1.849935E-07 (2,12,4) -3.623098E-07 (2,13,3) 4.740124E-04 (3,12,3) -1.04429
(2,12,4): (1,12,4) 1.04306 (2,11,4) -8.194805E-04 (2,12,3) 3.623098E-07 (2,12,5) -8.263638E-07 (2,13,4) 4.739946E-04 (3,12,4) -1.04430
(2,12,5): (1,12,5) 1.04307 (2,11,5) -8.194640E-04 (2,12,4) 8.263638E-07 (2,12,6) -1.166370E-06 (2,13,5) 4.739856E-04 (3,12,5) -1.04430
(2,12,6): (1,12,6) 1.04306 (2,11,6) -8.194529E-04 (2,12,5) 1.166370E-06 (2,12,7) -1.436314E-06 (2,13,6) 4.739796E-04 (3,12,6) -1.04429
(2,12,7): (1,12,7) 1.04304 (2,11,7) -8.194448E-04 (2,12,6) 1.436314E-06 (2,12,8) -1.939769E-06 (2,13,7) 4.739723E-04 (3,12,7) -1.04427
(2,12,8): (1,12,8) 1.04299 (2,11,8) -8.194425E-04 (2,12,7) 1.939769E-06 (2,12,9) -3.873397E-06 (2,13,8) 4.739740E-04 (3,12,8) -1.04424
(2,12,9): (1,12,9) 1.04290 (2,11,9) -8.194581E-04 (2,12,8) 3.873397E-06 (2,12,10) -1.121390E-05 (2,13,9) 4.740284E-04 (3,12,9) -1.04410
(2,12,10): (1,12,10) 1.04302 (2,11,10) -8.196314E-04 (2,12,9) 1.121390E-05 (2,13,10) 4.742993E-04 (3,12,10) -1.04347
(2,13,1): (1,13,1) 1.19705 (2,12,1) -4.740700E-04 (2,13,2) 1.269184E-06 (2,14,1) 2.693256E-04 (3,13,1) -1.19812
(2,13,2): (1,13,2) 1.19726 (2,12,2) -4.740361E-04 (2,13,1) -1.269184E-06 (2,13,3) -5.212144E-08 (2,14,2) 2.692821E-04 (3,13,2) -1.19814
(2,13,3): (1,13,3) 1.19728 (2,12,3) -4.740124E-04 (2,13,2) 5.212144E-08 (2,13,4) -5.404229E-07 (2,14,3) 2.692630E-04 (3,13,3) -1.19814
(2,13,4): (1,13,4) 1.19728 (2,12,4) -4.739946E-04 (2,13,3) 5.404229E-07 (2,13,5) -9.164344E-07 (2,14,4) 2.692575E-04 (3,13,4) -1.19814
(2,13,5): (1,13,5) 1.19728 (2,12,5) -4.739856E-04 (2,13,4) 9.164344E-07 (2,13,6) -1.226539E-06 (2,14,5) 2.692564E-04 (3,13,5) -1.19813
(2,13,6): (1,13,6) 1.19727 (2,12,6) -4.739796E-04 (2,13,5) 1.226539E-06 (2,13,7) -1.509146E-06 (2,14,6) 2.692504E-04 (3,13,6) -1.19812
(2,13,7): (1,13,7) 1.19725 (2,12,7) -4.739723E-04 (2,13,6) 1.509146E-06 (2,13,8) -1.923438E-06 (2,14,7) 2.692384E-04 (3,13,7) -1.19810
(2,13,8): (1,13,8) 1.19721 (2,12,8) -4.739740E-04 (2,13,7) 1.923438E-06 (2,13,9) -3.328530E-06 (2,14,8) 2.692311E-04 (3,13,8) -1.19807
(2,13,9): (1,13,9) 1.19713 (2,12,9) -4.740284E-04 (2,13,8) 3.328530E-06 (2,13,10) -8.505366E-06 (2,14,9) 2.692675E-04 (3,13,9) -1.19797
(2,13,10): (1,13,10) 1.19719 (2,12,10) -4.742993E-04 (2,13,9) 8.505366E-06 (2,14,10) 2.694583E-04 (3,13,10) -1.19754
(2,14,1): (1,14,1) 1.26222 (2,13,1) -2.693256E-04 (2,14,2) 8.337657E-07 (2,15,1) 1.235726E-04 (3,14,1) -1.26306
(2,14,2): (1,14,2) 1.26239 (2,13,2) -2.692821E-04 (2,14,1) -8.337657E-07 (2,14,3) -2.431582E-07 (2,15,2) 1.235201E-04 (3,14,2) -1.26306
(2,14,3): (1,14,3) 1.26240 (2,13,3) -2.692630E-04 (2,14,2) 2.431582E-07 (2,14,4) -5.956101E-07 (2,15,3) 1.235167E-04 (3,14,3) -1.26306
(2,14,4): (1,14,4) 1.26240 (2,13,4) -2.692575E-04 (2,14,3) 5.956101E-07 (2,14,5) -9.275730E-07 (2,15,4) 1.235177E-04 (3,14,4) -1.26305
(2,14,5): (1,14,5) 1.26239 (2,13,5) -2.692564E-04 (2,14,4) 9.275730E-07 (2,14,6) -1.285730E-06 (2,15,5) 1.235151E-04 (3,14,5) -1.26305
(2,14,6): (1,14,6) 1.26238 (2,13,6) -2.692504E-04 (2,14,5) 1.285730E-06 (2,14,7) -1.629086E-06 (2,15,6) 1.235107E-04 (3,14,6) -1.26303
(2,14,7): (1,14,7) 1.26237 (2,13,7) -2.692384E-04 (2,14,6) 1.629086E-06 (2,14,8) -1.996679E-06 (2,15,7) 1.235069E-04 (3,14,7) -1.26301
(2,14,8): (1,14,8) 1.26234 (2,13,8) -2.692311E-04 (2,14,7) 1.996679E-06 (2,14,9) -2.964567E-06 (2,15,8) 1.235058E-04 (3,14,8) -1.26298
(2,14,9): (1,14,9) 1.26228 (2,13,9) -2.692675E-04 (2,14,8) 2.964567E-06 (2,14,10) -6.597671E-06 (2,15,9) 1.235098E-04 (3,14,9) -1.26290
(2,14,10): (1,14,10) 1.26233 (2,13,10) -2.694583E-04 (2,14,9) 6.597671E-06 (2,15,10) 1.235211E-04 (3,14,10) -1.26261
(2,15,1): (1,15,1) 1.28616 (2,14,1) -1.235726E-04 (2,15,2) 3.091388E-07 (3,15,1) -1.28662
(2,15,2): (1,15,2) 1.28628 (2,14,2) -1.235201E-04 (2,15,1) -3.091388E-07 (2,15,3) -2.778358E-07 (3,15,2) -1.28663
(2,15,3): (1,15,3) 1.28628 (2,14,3) -1.235167E-04 (2,15,2) 2.778358E-07 (2,15,4) -5.854704E-07 (3,15,3) -1.28662
(2,15,4): (1,15,4) 1.28628 (2,14,4) -1.235177E-04 (2,15,3) 5.854704E-07 (2,15,5) -9.532421E-07 (3,15,4) -1.28662
(2,15,5): (1,15,5) 1.28627 (2,14,5) -1.235151E-04 (2,15,4) 9.532421E-07 (2,15,6) -1.329636E-06 (3,15,5) -1.28661
(2,15,6): (1,15,6) 1.28627 (2,14,6) -1.235107E-04 (2,15,5) 1.329636E-06 (2,15,7) -1.667679E-06 (3,15,6) -1.28659
(2,15,7): (1,15,7) 1.28625 (2,14,7) -1.235069E-04 (2,15,6) 1.667679E-06 (2,15,8) -2.007048E-06 (3,15,7) -1.28657
(2,15,8): (1,15,8) 1.28622 (2,14,8) -1.235058E-04 (2,15,7) 2.007048E-06 (2,15,9) -2.925187E-06 (3,15,8) -1.28654
(2,15,9): (1,15,9) 1.28618 (2,14,9) -1.235098E-04 (2,15,8) 2.925187E-06 (2,15,10) -6.484206E-06 (3,15,9) -1.28647
(2,15,10): (1,15,10) 1.28629 (2,14,10) -1.235211E-04 (2,15,9) 6.484206E-06 (3,15,10) -1.28617
(3,1,1): (2,1,1) 1.28646 (3,1,2) 8.424521E-04 (3,2,1) -1.28731
(3,1,2): (2,1,2) 1.28651 (3,1,1) -8.424521E-04 (3,1,3) -8.499421E-05 (3,2,2) -1.28733
(3,1,3): (2,1,3) 1.28654 (3,1,2) 8.499421E-05 (3,1,4) -3.224219E-04 (3,2,3) -1.28733
(3,1,4): (2,1,4) 1.28657 (3,1,3) 3.224219E-04 (3,1,5) -5.047547E-04 (3,2,4) -1.28735
(3,1,5): (2,1,5) 1.28660 (3,1,4) 5.047547E-04 (3,1,6) -6.552209E-04 (3,2,5) -1.28740
(3,1,6): (2,1,6) 1.28661 (3,1,5) 6.552209E-04 (3,1,7) -7.658532E-04 (3,2,6) -1.28744
(3,1,7): (2,1,7) 1.28661 (3,1,6) 7.658532E-04 (3,1,8) -7.962020E-04 (3,2,7) -1.28745
(3,1,8): (2,1,8) 1.28661 (3,1,7) 7.962020E-04 (3,1,9) -7.589065E-04 (3,2,8) -1.28745
(3,1,9): (2,1,9) 1.28660 (3,1,8) 7.589065E-04 (3,1,10) -6.289186E-04 (3,2,9) -1.28754
(3,1,10): (2,1,10) 1.28645 (3,1,9) 6.289186E-04 (3,2,10) -1.28800
(3,2,1): (2,2,1) 1.26282 (3,1,1) 1.28731 (3,2,2) 8.331948E-04 (3,3,1) -2.55211
(3,2,2): (2,2,2) 1.26287 (3,1,2) 1.28733 (3,2,1) -8.331948E-04 (3,2,3) -8.581745E-05 (3,3,2) -2.55196
(3,2,3): (2,2,3) 1.26290 (3,1,3) 1.28733 (3,2,2) 8.581745E-05 (3,2,4) -3.291750E-04 (3,3,3) -2.55197
(3,2,4): (2,2,4) 1.26293 (3,1,4) 1.28735 (3,2,3) 3.291750E-04 (3,2,5) -5.292043E-04 (3,3,4) -2.55200
(3,2,5): (2,2,5) 1.26295 (3,1,5) 1.28740 (3,2,4) 5.292043E-04 (3,2,6) -6.758421E-04 (3,3,5) -2.55202
(3,2,6): (2,2,6) 1.26295 (3,1,6) 1.28744 (3,2,5) 6.758421E-04 (3,2,7) -7.694646E-04 (3,3,6) -2.55205
(3,2,7): (2,2,7) 1.26295 (3,1,7) 1.28745 (3,2,6) 7.694646E-04 (3,2,8) -7.980248E-04 (3,3,7) -2.55207
(3,2,8): (2,2,8) 1.26295 (3,1,8) 1.28745 (3,2,7) 7.980248E-04 (3,2,9) -8.049314E-04 (3,3,8) -2.55212
(3,2,9): (2,2,9) 1.26292 (3,1,9) 1.28754 (3,2,8) 8.049314E-04 (3,2,10) -8.561880E-04 (3,3,9) -2.55226
(3,2,10): (2,2,10) 1.26275 (3,1,10) 1.28800 (3,2,9) 8.561880E-04 (3,3,10) -2.55258
(3,3,1): (2,3,1) 1.19800 (3,2,1) 2.55211 (3,3,2) 9.069858E-04 (3,4,1) -3.75204
(3,3,2): (2,3,2) 1.19810 (3,2,2) 2.55196 (3,3,1) -9.069858E-04 (3,3,3) -9.218694E-05 (3,4,2) -3.75199
(3,3,3): (2,3,3) 1.19813 (3,2,3) 2.55197 (3,3,2) 9.218694E-05 (3,3,4) -3.422028E-04 (3,4,3) -3.75202
(3,3,4): (2,3,4) 1.19815 (3,2,4) 2.55200 (3,3,3) 3.422028E-04 (3,3,5) -5.430117E-04 (3,4,4) -3.75203
(3,3,5): (2,3,5) 1.19817 (3,2,5) 2.55202 (3,3,4) 5.430117E-04 (3,3,6) -6.866863E-04 (3,4,5) -3.75204
(3,3,6): (2,3,6) 1.19817 (3,2,6) 2.55205 (3,3,5) 6.866863E-04 (3,3,7) -7.791387E-04 (3,4,6) -3.75204
(3,3,7): (2,3,7) 1.19817 (3,2,7) 2.55207 (3,3,6) 7.791387E-04 (3,3,8) -8.249237E-04 (3,4,7) -3.75207
(3,3,8): (2,3,8) 1.19815 (3,2,8) 2.55212 (3,3,7) 8.249237E-04 (3,3,9) -8.761182E-04 (3,4,8) -3.75213
(3,3,9): (2,3,9) 1.19810 (3,2,9) 2.55226 (3,3,8) 8.761182E-04 (3,3,10) -1.013132E-03 (3,4,9) -3.75231
(3,3,10): (2,3,10) 1.19784 (3,2,10) 2.55258 (3,3,9) 1.013132E-03 (3,4,10) -3.75274
(3,4,1): (2,4,1) 1.04424 (3,3,1) 3.75204 (3,4,2) 9.339567E-04 (3,5,1) -4.79854
(3,4,2): (2,4,2) 1.04439 (3,3,2) 3.75199 (3,4,1) -9.339567E-04 (3,4,3) -1.067296E-04 (3,5,2) -4.79875
(3,4,3): (2,4,3) 1.04443 (3,3,3) 3.75202 (3,4,2) 1.067296E-04 (3,4,4) -3.505795E-04 (3,5,3) -4.79880
(3,4,4): (2,4,4) 1.04445 (3,3,4) 3.75203 (3,4,3) 3.505795E-04 (3,4,5) -5.442296E-04 (3,5,4) -4.79880
(3,4,5): (2,4,5) 1.04446 (3,3,5) 3.75204 (3,4,4) 5.442296E-04 (3,4,6) -6.894144E-04 (3,5,5) -4.79879
(3,4,6): (2,4,6) 1.04446 (3,3,6) 3.75204 (3,4,5) 6.894144E-04 (3,4,7) -7.907076E-04 (3,5,6) -4.79878
(3,4,7): (2,4,7) 1.04444 (3,3,7) 3.75207 (3,4,6) 7.907076E-04 (3,4,8) -8.586601E-04 (3,5,7) -4.79878
(3,4,8): (2,4,8) 1.04441 (3,3,8) 3.75213 (3,4,7) 8.586601E-04 (3,4,9) -9.660067E-04 (3,5,8) -4.79882
(3,4,9): (2,4,9) 1.04433 (3,3,9) 3.75231 (3,4,8) 9.660067E-04 (3,4,10) -1.225093E-03 (3,5,9) -4.79899
(3,4,10): (2,4,10) 1.04388 (3,3,10) 3.75274 (3,4,9) 1.225093E-03 (3,5,10) -4.79944
(3,5,1): (2,5,1) 0.687960 (3,4,1) 4.79854 (3,5,2) 8.283602E-04 (3,6,1) -5.48908
(3,5,2): (2,5,2) 0.688069 (3,4,2) 4.79875 (3,5,1) -8.283602E-04 (3,5,3) -1.331231E-04 (3,6,2) -5.48940
(3,5,3): (2,5,3) 0.688097 (3,4,3) 4.79880 (3,5,2) 1.331231E-04 (3,5,4) -3.507701E-04 (3,6,3) -5.48943
(3,5,4): (2,5,4) 0.688112 (3,4,4) 4.79880 (3,5,3) 3.507701E-04 (3,5,5) -5.349500E-04 (3,6,4) -5.48941
(3,5,5): (2,5,5) 0.688122 (3,4,5) 4.79879 (3,5,4) 5.349500E-04 (3,5,6) -6.841479E-04 (3,6,5) -5.48938
(3,5,6): (2,5,6) 0.688119 (3,4,6) 4.79878 (3,5,5) 6.841479E-04 (3,5,7) -7.929027E-04 (3,6,6) -5.48935
(3,5,7): (2,5,7) 0.688099 (3,4,7) 4.79878 (3,5,6) 7.929027E-04 (3,5,8) -8.787081E-04 (3,6,7) -5.48932
(3,5,8): (2,5,8) 0.688061 (3,4,8) 4.79882 (3,5,7) 8.787081E-04 (3,5,9) -1.051275E-03 (3,6,8) -5.48931
(3,5,9): (2,5,9) 0.687936 (3,4,9) 4.79899 (3,5,8) 1.051275E-03 (3,5,10) -1.449116E-03 (3,6,9) -5.48939
(3,5,10): (2,5,10) 0.687201 (3,4,10) 4.79944 (3,5,9) 1.449116E-03 (3,6,10) -5.48956
(3,6,1): (2,6,1) -0.135889 (3,5,1) 5.48908 (3,6,2) 6.715936E-04 (3,7,1) -5.35590
(3,6,2): (2,6,2) -0.135887 (3,5,2) 5.48940 (3,6,1) -6.715936E-04 (3,6,3) -1.504765E-04 (3,7,2) -5.35593
(3,6,3): (2,6,3) -0.135885 (3,5,3) 5.48943 (3,6,2) 1.504765E-04 (3,6,4) -3.413907E-04 (3,7,3) -5.35588
(3,6,4): (2,6,4) -0.135876 (3,5,4) 5.48941 (3,6,3) 3.413907E-04 (3,6,5) -5.181606E-04 (3,7,4) -5.35584
(3,6,5): (2,6,5) -0.135869 (3,5,5) 5.48938 (3,6,4) 5.181606E-04 (3,6,6) -6.701385E-04 (3,7,5) -5.35580
(3,6,6): (2,6,6) -0.135871 (3,5,6) 5.48935 (3,6,5) 6.701385E-04 (3,6,7) -7.790203E-04 (3,7,6) -5.35576
(3,6,7): (2,6,7) -0.135882 (3,5,7) 5.48932 (3,6,6) 7.790203E-04 (3,6,8) -8.727153E-04 (3,7,7) -5.35571
(3,6,8): (2,6,8) -0.135916 (3,5,8) 5.48931 (3,6,7) 8.727153E-04 (3,6,9) -1.092422E-03 (3,7,8) -5.35565
(3,6,9): (2,6,9) -0.136081 (3,5,9) 5.48939 (3,6,8) 1.092422E-03 (3,6,10) -1.534062E-03 (3,7,9) -5.35559
(3,6,10): (2,6,10) -0.136861 (3,5,10) 5.48956 (3,6,9) 1.534062E-03 (3,7,10) -5.35533
(3,7,1): (2,7,1) -2.05437 (3,6,1) 5.35590 (3,7,2) 6.578799E-04 (3,8,1) -3.30395
(3,7,2): (2,7,2) -2.05442 (3,6,2) 5.35593 (3,7,1) -6.578799E-04 (3,7,3) -1.286796E-04 (3,8,2) -3.30357
(3,7,3): (2,7,3) -2.05443 (3,6,3) 5.35588 (3,7,2) 1.286796E-04 (3,7,4) -3.197805E-04 (3,8,3) -3.30345
(3,7,4): (2,7,4) -2.05442 (3,6,4) 5.35584 (3,7,3) 3.197805E-04 (3,7,5) -4.966523E-04 (3,8,4) -3.30340
(3,7,5): (2,7,5) -2.05441 (3,6,5) 5.35580 (3,7,4) 4.966523E-04 (3,7,6) -6.507578E-04 (3,8,5) -3.30336
(3,7,6): (2,7,6) -2.05440 (3,6,6) 5.35576 (3,7,5) 6.507578E-04 (3,7,7) -7.553946E-04 (3,8,6) -3.30333
(3,7,7): (2,7,7) -2.05439 (3,6,7) 5.35571 (3,7,6) 7.553946E-04 (3,7,8) -8.423145E-04 (3,8,7) -3.30330
(3,7,8): (2,7,8) -2.05440 (3,6,8) 5.35565 (3,7,7) 8.423145E-04 (3,7,9) -1.060649E-03 (3,8,8) -3.30324
(3,7,9): (2,7,9) -2.05450 (3,6,9) 5.35559 (3,7,8) 1.060649E-03 (3,7,10) -1.406420E-03 (3,8,9) -3.30312
(3,7,10): (2,7,10) -2.05491 (3,6,10) 5.35533 (3,7,9) 1.406420E-03 (3,8,10) -3.30279
(3,8,1): (2,8,1) -6.61617 (3,7,1) 3.30395 (3,8,2) 8.450754E-04 (3,9,1) 3.31019
(3,8,2): (2,8,2) -6.61621 (3,7,2) 3.30357 (3,8,1) -8.450754E-04 (3,8,3) -6.969893E-05 (3,9,2) 3.31066
(3,8,3): (2,8,3) -6.61620 (3,7,3) 3.30345 (3,8,2) 6.969893E-05 (3,8,4) -2.903337E-04 (3,9,3) 3.31079
(3,8,4): (2,8,4) -6.61619 (3,7,4) 3.30340 (3,8,3) 2.903337E-04 (3,8,5) -4.769933E-04 (3,9,4) 3.31084
(3,8,5): (2,8,5) -6.61616 (3,7,5) 3.30336 (3,8,4) 4.769933E-04 (3,8,6) -6.371859E-04 (3,9,5) 3.31085
(3,8,6): (2,8,6) -6.61613 (3,7,6) 3.30333 (3,8,5) 6.371859E-04 (3,8,7) -7.406716E-04 (3,9,6) 3.31083
(3,8,7): (2,8,7) -6.61609 (3,7,7) 3.30330 (3,8,6) 7.406716E-04 (3,8,8) -8.135260E-04 (3,9,7) 3.31080
(3,8,8): (2,8,8) -6.61605 (3,7,8) 3.30324 (3,8,7) 8.135260E-04 (3,8,9) -9.989376E-04 (3,9,8) 3.31075
(3,8,9): (2,8,9) -6.61600 (3,7,9) 3.30312 (3,8,8) 9.989376E-04 (3,8,10) -1.244030E-03 (3,9,9) 3.31068
(3,8,10): (2,8,10) -6.61594 (3,7,10) 3.30279 (3,8,9) 1.244030E-03 (3,9,10) 3.31051
(3,9,1): (2,9,1) -2.05388 (3,8,1) -3.31019 (3,9,2) 1.081064E-03 (3,10,1) 5.36196
(3,9,2): (2,9,2) -2.05374 (3,8,2) -3.31066 (3,9,1) -1.081064E-03 (3,9,3) -4.432289E-06 (3,10,2) 5.36210
(3,9,3): (2,9,3) -2.05371 (3,8,3) -3.31079 (3,9,2) 4.432289E-06 (3,9,4) -2.650818E-04 (3,10,3) 5.36216
(3,9,4): (2,9,4) -2.05369 (3,8,4) -3.31084 (3,9,3) 2.650818E-04 (3,9,5) -4.729483E-04 (3,10,4) 5.36218
(3,9,5): (2,9,5) -2.05367 (3,8,5) -3.31085 (3,9,4) 4.729483E-04 (3,9,6) -6.469097E-04 (3,10,5) 5.36215
(3,9,6): (2,9,6) -2.05366 (3,8,6) -3.31083 (3,9,5) 6.469097E-04 (3,9,7) -7.592846E-04 (3,10,6) 5.36210
(3,9,7): (2,9,7) -2.05364 (3,8,7) -3.31080 (3,9,6) 7.592846E-04 (3,9,8) -8.373746E-04 (3,10,7) 5.36202
(3,9,8): (2,9,8) -2.05364 (3,8,8) -3.31075 (3,9,7) 8.373746E-04 (3,9,9) -1.034672E-03 (3,10,8) 5.36190
(3,9,9): (2,9,9) -2.05364 (3,8,9) -3.31068 (3,9,8) 1.034672E-03 (3,9,10) -1.328943E-03 (3,10,9) 5.36165
(3,9,10): (2,9,10) -2.05383 (3,8,10) -3.31051 (3,9,9) 1.328943E-03 (3,10,10) 5.36107
(3,10,1): (2,10,1) -0.135542 (3,9,1) -5.36196 (3,10,2) 1.148151E-03 (3,11,1) 5.49478
(3,10,2): (2,10,2) -0.135415 (3,9,2) -5.36210 (3,10,1) -1.148151E-03 (3,10,3) 2.877600E-05 (3,11,2) 5.49461
(3,10,3): (2,10,3) -0.135388 (3,9,3) -5.36216 (3,10,2) -2.877600E-05 (3,10,4) -2.580187E-04 (3,11,3) 5.49461
(3,10,4): (2,10,4) -0.135369 (3,9,4) -5.36218 (3,10,3) 2.580187E-04 (3,10,5) -4.869321E-04 (3,11,4) 5.49457
(3,10,5): (2,10,5) -0.135355 (3,9,5) -5.36215 (3,10,4) 4.869321E-04 (3,10,6) -6.719844E-04 (3,11,5) 5.49451
(3,10,6): (2,10,6) -0.135351 (3,9,6) -5.36210 (3,10,5) 6.719844E-04 (3,10,7) -7.976200E-04 (3,11,6) 5.49445
(3,10,7): (2,10,7) -0.135354 (3,9,7) -5.36202 (3,10,6) 7.976200E-04 (3,10,8) -9.007801E-04 (3,11,7) 5.49436
(3,10,8): (2,10,8) -0.135378 (3,9,8) -5.36190 (3,10,7) 9.007801E-04 (3,10,9) -1.160325E-03 (3,11,8) 5.49421
(3,10,9): (2,10,9) -0.135474 (3,9,9) -5.36165 (3,10,8) 1.160325E-03 (3,10,10) -1.616923E-03 (3,11,9) 5.49392
(3,10,10): (2,10,10) -0.136099 (3,9,10) -5.36107 (3,10,9) 1.616923E-03 (3,11,10) 5.49343
(3,11,1): (2,11,1) 0.688019 (3,10,1) -5.49478 (3,11,2) 1.062734E-03 (3,12,1) 4.80348
(3,11,2): (2,11,2) 0.688072 (3,10,2) -5.49461 (3,11,1) -1.062734E-03 (3,11,3) 2.574900E-05 (3,12,2) 4.80321
(3,11,3): (2,11,3) 0.688094 (3,10,3) -5.49461 (3,11,2) -2.574900E-05 (3,11,4) -2.758469E-04 (3,12,3) 4.80314
(3,11,4): (2,11,4) 0.688110 (3,10,4) -5.49457 (3,11,3) 2.758469E-04 (3,11,5) -5.159151E-04 (3,12,4) 4.80307
(3,11,5): (2,11,5) 0.688116 (3,10,5) -5.49451 (3,11,4) 5.159151E-04 (3,11,6) -7.026873E-04 (3,12,5) 4.80300
(3,11,6): (2,11,6) 0.688112 (3,10,6) -5.49445 (3,11,5) 7.026873E-04 (3,11,7) -8.416702E-04 (3,12,6) 4.80294
(3,11,7): (2,11,7) 0.688100 (3,10,7) -5.49436 (3,11,6) 8.416702E-04 (3,11,8) -9.757678E-04 (3,12,7) 4.80287
(3,11,8): (2,11,8) 0.688061 (3,10,8) -5.49421 (3,11,7) 9.757678E-04 (3,11,9) -1.306655E-03 (3,12,8) 4.80275
(3,11,9): (2,11,9) 0.687900 (3,10,9) -5.49392 (3,11,8) 1.306655E-03 (3,11,10) -1.865420E-03 (3,12,9) 4.80258
(3,11,10): (2,11,10) 0.687131 (3,10,10) -5.49343 (3,11,9) 1.865420E-03 (3,12,10) 4.80241
(3,12,1): (2,12,1) 1.04426 (3,11,1) -4.80348 (3,12,2) 9.280171E-04 (3,13,1) 3.75584
(3,12,2): (2,12,2) 1.04428 (3,11,2) -4.80321 (3,12,1) -9.280171E-04 (3,12,3) -8.262192E-06 (3,13,2) 3.75555
(3,12,3): (2,12,3) 1.04429 (3,11,3) -4.80314 (3,12,2) 8.262192E-06 (3,12,4) -3.118453E-04 (3,13,3) 3.75544
(3,12,4): (2,12,4) 1.04430 (3,11,4) -4.80307 (3,12,3) 3.118453E-04 (3,12,5) -5.492968E-04 (3,13,4) 3.75537
(3,12,5): (2,12,5) 1.04430 (3,11,5) -4.80300 (3,12,4) 5.492968E-04 (3,12,6) -7.307283E-04 (3,13,5) 3.75531
(3,12,6): (2,12,6) 1.04429 (3,11,6) -4.80294 (3,12,5) 7.307283E-04 (3,12,7) -8.798570E-04 (3,13,6) 3.75527
(3,12,7): (2,12,7) 1.04427 (3,11,7) -4.80287 (3,12,6) 8.798570E-04 (3,12,8) -1.032499E-03 (3,13,7) 3.75521
(3,12,8): (2,12,8) 1.04424 (3,11,8) -4.80275 (3,12,7) 1.032499E-03 (3,12,9) -1.391476E-03 (3,13,8) 3.75513
(3,12,9): (2,12,9) 1.04410 (3,11,9) -4.80258 (3,12,8) 1.391476E-03 (3,12,10) -1.949941E-03 (3,13,9) 3.75510
(3,12,10): (2,12,10) 1.04347 (3,11,10) -4.80241 (3,12,9) 1.949941E-03 (3,13,10) 3.75519
(3,13,1): (2,13,1) 1.19812 (3,12,1) -3.75584 (3,13,2) 7.819999E-04 (3,14,1) 2.55460
(3,13,2): (2,13,2) 1.19814 (3,12,2) -3.75555 (3,13,1) -7.819999E-04 (3,13,3) -6.100130E-05 (3,14,2) 2.55419
(3,13,3): (2,13,3) 1.19814 (3,12,3) -3.75544 (3,13,2) 6.100130E-05 (3,13,4) -3.490068E-04 (3,14,3) 2.55409
(3,13,4): (2,13,4) 1.19814 (3,12,4) -3.75537 (3,13,3) 3.490068E-04 (3,13,5) -5.764030E-04 (3,14,4) 2.55405
(3,13,5): (2,13,5) 1.19813 (3,12,5) -3.75531 (3,13,4) 5.764030E-04 (3,13,6) -7.540010E-04 (3,14,5) 2.55401
(3,13,6): (2,13,6) 1.19812 (3,12,6) -3.75527 (3,13,5) 7.540010E-04 (3,13,7) -9.108868E-04 (3,14,6) 2.55397
(3,13,7): (2,13,7) 1.19810 (3,12,7) -3.75521 (3,13,6) 9.108868E-04 (3,13,8) -1.067823E-03 (3,14,7) 2.55393
(3,13,8): (2,13,8) 1.19807 (3,12,8) -3.75513 (3,13,7) 1.067823E-03 (3,13,9) -1.409133E-03 (3,14,8) 2.55389
(3,13,9): (2,13,9) 1.19797 (3,12,9) -3.75510 (3,13,8) 1.409133E-03 (3,13,10) -1.906461E-03 (3,14,9) 2.55392
(3,13,10): (2,13,10) 1.19754 (3,12,10) -3.75519 (3,13,9) 1.906461E-03 (3,14,10) 2.55407
(3,14,1): (2,14,1) 1.26306 (3,13,1) -2.55460 (3,14,2) 5.760763E-04 (3,15,1) 1.28882
(3,14,2): (2,14,2) 1.26306 (3,13,2) -2.55419 (3,14,1) -5.760763E-04 (3,14,3) -1.118793E-04 (3,15,2) 1.28798
(3,14,3): (2,14,3) 1.26306 (3,13,3) -2.55409 (3,14,2) 1.118793E-04 (3,14,4) -3.716347E-04 (3,15,3) 1.28795
(3,14,4): (2,14,4) 1.26305 (3,13,4) -2.55405 (3,14,3) 3.716347E-04 (3,14,5) -5.928560E-04 (3,15,4) 1.28796
(3,14,5): (2,14,5) 1.26305 (3,13,5) -2.55401 (3,14,4) 5.928560E-04 (3,14,6) -7.728203E-04 (3,15,5) 1.28795
(3,14,6): (2,14,6) 1.26303 (3,13,6) -2.55397 (3,14,5) 7.728203E-04 (3,14,7) -9.337217E-04 (3,15,6) 1.28793
(3,14,7): (2,14,7) 1.26301 (3,13,7) -2.55393 (3,14,6) 9.337217E-04 (3,14,8) -1.087877E-03 (3,15,7) 1.28792
(3,14,8): (2,14,8) 1.26298 (3,13,8) -2.55389 (3,14,7) 1.087877E-03 (3,14,9) -1.395848E-03 (3,15,8) 1.28792
(3,14,9): (2,14,9) 1.26290 (3,13,9) -2.55392 (3,14,8) 1.395848E-03 (3,14,10) -1.828289E-03 (3,15,9) 1.28793
(3,14,10): (2,14,10) 1.26261 (3,13,10) -2.55407 (3,14,9) 1.828289E-03 (3,15,10) 1.28798
(3,15,1): (2,15,1) 1.28662 (3,14,1) -1.28882 (3,15,2) 1.533121E-04
(3,15,2): (2,15,2) 1.28663 (3,14,2) -1.28798 (3,15,1) -1.533121E-04 (3,15,3) -1.226995E-04
(3,15,3): (2,15,3) 1.28662 (3,14,3) -1.28795 (3,15,2) 1.226995E-04 (3,15,4) -3.709738E-04
(3,15,4): (2,15,4) 1.28662 (3,14,4) -1.28796 (3,15,3) 3.709738E-04 (3,15,5) -5.963663E-04
(3,15,5): (2,15,5) 1.28661 (3,14,5) -1.28795 (3,15,4) 5.963663E-04 (3,15,6) -7.804212E-04
(3,15,6): (2,15,6) 1.28659 (3,14,6) -1.28793 (3,15,5) 7.804212E-04 (3,15,7) -9.384051E-04
(3,15,7): (2,15,7) 1.28657 (3,14,7) -1.28792 (3,15,6) 9.384051E-04 (3,15,8) -1.091581E-03
(3,15,8): (2,15,8) 1.28654 (3,14,8) -1.28792 (3,15,7) 1.091581E-03 (3,15,9) -1.387595E-03
(3,15,9): (2,15,9) 1.28647 (3,14,9) -1.28793 (3,15,8) 1.387595E-03 (3,15,10) -1.805006E-03
(3,15,10): (2,15,10) 1.28617 (3,14,10) -1.28798 (3,15,9) 1.805006E-03
1
  HEAD IN LAYER   1 AT END OF TIME STEP   1 IN STRESS PERIOD    1
  ---------------------------------------------------------------------------

            1           2           3           4           5           6           7           8           9          10
 ........................................................................................................................
   1    45.48       45.48       45.48       45.48       45.48       45.48       45.48       45.48       45.48       45.48    
   2    45.47       45.47       45.47       45.47       45.47       45.47       45.47       45.47       45.47       45.47    
   3    45.47       45.47       45.47       45.47       45.47       45.47       45.47       45.47       45.47       45.47    
   4    45.45       45.45       45.45       45.45       45.45       45.45       45.45       45.45       45.45       45.45    
   5    45.43       45.43       45.43       45.43       45.43       45.43       45.43       45.43       45.43       45.43    
   6    45.38       45.38       45.38       45.38       45.38       45.38       45.38       45.38       45.38       45.38    
   7    45.27       45.27       45.27       45.27       45.27       45.27       45.27       45.27       45.27       45.27    
   8    45.02       45.02       45.02       45.02       45.02       45.02       45.02       45.02       45.02       45.02    
   9    45.27       45.27       45.27       45.27       45.27       45.27       45.27       45.27       45.27       45.27    
  10    45.38       45.38       45.38       45.38       45.38       45.38       45.38       45.38       45.38       45.38    
  11    45.43       45.43       45.43       45.43       45.43       45.43       45.43       45.43       45.43       45.43    
  12    45.45       45.45       45.45       45.45       45.45       45.45       45.45       45.45       45.45       45.45    
  13    45.47       45.47       45.47       45.47       45.47       45.47       45.47       45.47       45.47       45.47    
  14    45.47       45.47       45.47       45.47       45.47       45.47       45.47       45.47       45.47       45.47    
  15    45.48       45.48       45.48       45.48       45.48       45.48       45.48       45.48       45.48       45.48    
1
  HEAD IN LAYER   2 AT END OF TIME STEP   1 IN STRESS PERIOD    1
  ---------------------------------------------------------------------------

            1           2           3           4           5           6           7           8           9          10
 ........................................................................................................................
   1    45.44       45.44       45.44       45.44       45.44       45.44       45.44       45.44       45.44       45.44    
   2    45.44       45.44       45.44       45.44       45.44       45.44       45.44       45.44       45.44       45.44    
   3    45.43       45.43       45.43       45.43       45.43       45.43       45.43       45.43       45.43       45.43    
   4    45.42       45.42       45.42       45.42       45.42       45.42       45.42       45.42       45.42       45.42    
   5    45.41       45.41       45.41       45.41       45.41       45.41       45.41       45.41       45.41       45.41    
   6    45.38       45.38       45.38       45.38       45.38       45.38       45.38       45.38       45.38       45.38    
   7    45.32       45.32       45.32       45.32       45.32       45.32       45.32       45.32       45.32       45.32    
   8    45.19       45.19       45.19       45.19       45.19       45.19       45.19       45.19       45.19       45.19    
   9    45.32       45.32       45.32       45.32       45.32       45.32       45.32       45.32       45.32       45.32    
  10    45.38       45.38       45.38       45.38       45.38       45.38       45.38       45.38       45.38       45.38    
  11    45.41       45.41       45.41       45.41       45.41       45.41       45.41       45.41       45.41       45.41    
  12    45.43       45.43       45.43       45.43       45.43       45.43       45.42       45.42       45.42       45.42    
  13    45.43       45.43       45.43       45.43       45.43       45.43       45.43       45.43       45.43       45.43    
  14    45.44       45.44       45.44       45.44       45.44       45.44       45.44       45.44       45.44       45.44    
  15    45.44       45.44       45.44       45.44       45.44       45.44       45.44       45.44       45.44       45.44    
1
  HEAD IN LAYER   3 AT END OF TIME STEP   1 IN STRESS PERIOD    1
  ---------------------------------------------------------------------------

            1           2           3           4           5           6           7           8           9          10
 ........................................................................................................................
   1    45.41       45.41       45.41       45.41       45.41       45.41       45.41       45.41       45.41       45.41    
   2    45.41       45.41       45.41       45.41       45.41       45.41       45.41       45.41       45.41       45.41    
   3    45.40       45.40       45.40       45.40       45.40       45.40       45.40       45.40       45.40       45.40    
   4    45.40       45.40       45.40       45.40       45.40       45.40       45.40       45.40       45.40       45.40    
   5    45.39       45.39       45.39       45.39       45.39       45.39       45.39       45.39       45.39       45.39    
   6    45.38       45.38       45.38       45.38       45.38       45.38       45.38       45.38       45.38       45.38    
   7    45.37       45.37       45.37       45.37       45.37       45.37       45.37       45.37       45.37       45.37    
   8    45.37       45.37       45.37       45.37       45.37       45.37       45.37       45.37       45.37       45.37    
   9    45.37       45.37       45.37       45.37       45.37       45.37       45.37       45.37       45.37       45.37    
  10    45.38       45.38       45.38       45.38       45.38       45.38       45.38       45.38       45.38       45.38    
  11    45.39       45.39       45.39       45.39       45.39       45.39       45.39       45.39       45.39       45.39    
  12    45.40       45.40       45.40       45.40       45.40       45.40       45.40       45.40       45.40       45.40    
  13    45.40       45.40       45.40       45.40       45.40       45.40       45.40       45.40       45.40       45.40    
  14    45.41       45.41       45.41       45.41       45.41       45.41       45.41       45.41       45.41       45.41    
  15    45.41       45.41       45.41       45.41       45.41       45.41       45.41       45.41       45.41       45.41    

 HEAD WILL BE SAVED ON UNIT 1014 AT END OF TIME STEP    1, STRESS PERIOD    1


  VOLUME BUDGET FOR ENTIRE MODEL AT END OF TIME STEP    1, STRESS PERIOD   1
  ---------------------------------------------------------------------------------------------------

     CUMULATIVE VOLUME      L**3       RATES FOR THIS TIME STEP      L**3/T          PACKAGE NAME    
     ------------------                 ------------------------                     ----------------

           IN:                                      IN:
           ---                                      ---
                 RIV =           0.0000                   RIV =           0.0000     RIV_0           
                 RCH =         205.5000                   RCH =         205.5000     RCH             

            TOTAL IN =         205.5000              TOTAL IN =         205.5000

          OUT:                                     OUT:
          ----                                     ----
                 RIV =         206.3339                   RIV =         206.3339     RIV_0           
                 RCH =           0.0000                   RCH =           0.0000     RCH             

           TOTAL OUT =         206.3339             TOTAL OUT =         206.3339

            IN - OUT =           0.8339              IN - OUT =           0.8339

 PERCENT DISCREPANCY =          -0.40     PERCENT DISCREPANCY =          -0.40




         TIME SUMMARY AT END OF TIME STEP    1 IN STRESS PERIOD    1
                    SECONDS     MINUTES      HOURS       DAYS        YEARS
                    -----------------------------------------------------------
   TIME STEP LENGTH  86400.      1440.0      24.000      1.0000     2.73785E-03
 STRESS PERIOD TIME  86400.      1440.0      24.000      1.0000     2.73785E-03
         TOTAL TIME  86400.      1440.0      24.000      1.0000     2.73785E-03


end timestep


start timestep kper="2" kstp="1" mode="normal"


 END OF FILE DETECTED IN OUTPUT CONTROL.
 CURRENT OUTPUT CONTROL SETTINGS WILL BE 
 REPEATED UNTIL THE END OF THE SIMULATION.

 OUTPUT CONTROL FOR STRESS PERIOD 2 IS REPEATED USING SETTINGS FROM A PREVIOUS STRESS PERIOD.

 REUSING RIVS FROM LAST STRESS PERIOD
 UBDSV1 SAVING     FLOW-JA-FACE ON UNIT   1013 AT TIME STEP      1, STRESS PERIOD      2
 UBDSV06 SAVING       DATA-SPDIS IN MODEL SYMP03           PACKAGE NPF             CONNECTED TO MODEL SYMP03           PACKAGE NPF              ON UNIT   1013 AT TIME STEP      1, STRESS PERIOD      2
 UBDSV06 SAVING              RIV IN MODEL SYMP03           PACKAGE SYMP03          CONNECTED TO MODEL SYMP03           PACKAGE RIV_0            ON UNIT   1013 AT TIME STEP      1, STRESS PERIOD      2
 UBDSV06 SAVING              RCH IN MODEL SYMP03           PACKAGE SYMP03          CONNECTED TO MODEL SYMP03           PACKAGE RCH              ON UNIT   1013 AT TIME STEP      1, STRESS PERIOD      2

    CALCULATED INTERCELL FLOW FOR PERIOD 2 STEP 1
(1,1,1): (1,1,2) 5.710782E-04 (1,2,1) -0.145326 (2,1,1) -2.59495
(1,1,2): (1,1,1) -5.710782E-04 (1,1,3) 4.758176E-04 (1,2,2) -0.145367 (2,1,2) -2.59515
(1,1,3): (1,1,2) -4.758176E-04 (1,1,4) 5.679036E-04 (1,2,3) -0.145353 (2,1,3) -2.59519
(1,1,4): (1,1,3) -5.679036E-04 (1,1,5) 6.144548E-04 (1,2,4) -0.145335 (2,1,4) -2.59520
(1,1,5): (1,1,4) -6.144548E-04 (1,1,6) 5.834460E-04 (1,2,5) -0.145321 (2,1,5) -2.59521
(1,1,6): (1,1,5) -5.834460E-04 (1,1,7) 4.726803E-04 (1,2,6) -0.145317 (2,1,6) -2.59523
(1,1,7): (1,1,6) -4.726803E-04 (1,1,8) 3.044311E-04 (1,2,7) -0.145319 (2,1,7) -2.59525
(1,1,8): (1,1,7) -3.044311E-04 (1,1,9) 1.061667E-04 (1,2,8) -0.145331 (2,1,8) -2.59526
(1,1,9): (1,1,8) -1.061667E-04 (1,1,10) -7.778883E-05 (1,2,9) -0.145369 (2,1,9) -2.59528
(1,1,10): (1,1,9) 7.778883E-05 (1,2,10) -0.145462 (2,1,10) -2.59547
(1,2,1): (1,1,1) 0.145326 (1,2,2) 5.299005E-04 (1,3,1) -0.319578 (2,2,1) -2.56683
(1,2,2): (1,1,2) 0.145367 (1,2,1) -5.299005E-04 (1,2,3) 4.900828E-04 (1,3,2) -0.319547 (2,2,2) -2.56700
(1,2,3): (1,1,3) 0.145353 (1,2,2) -4.900828E-04 (1,2,4) 5.861015E-04 (1,3,3) -0.319551 (2,2,3) -2.56704
(1,2,4): (1,1,4) 0.145335 (1,2,3) -5.861015E-04 (1,2,5) 6.287649E-04 (1,3,4) -0.319568 (2,2,4) -2.56707
(1,2,5): (1,1,5) 0.145321 (1,2,4) -6.287649E-04 (1,2,6) 5.883660E-04 (1,3,5) -0.319594 (2,2,5) -2.56710
(1,2,6): (1,1,6) 0.145317 (1,2,5) -5.883660E-04 (1,2,7) 4.703302E-04 (1,3,6) -0.319621 (2,2,6) -2.56713
(1,2,7): (1,1,7) 0.145319 (1,2,6) -4.703302E-04 (1,2,8) 2.926408E-04 (1,3,7) -0.319647 (2,2,7) -2.56716
(1,2,8): (1,1,8) 0.145331 (1,2,7) -2.926408E-04 (1,2,9) 6.916332E-05 (1,3,8) -0.319674 (2,2,8) -2.56717
(1,2,9): (1,1,9) 0.145369 (1,2,8) -6.916332E-05 (1,2,10) -1.713057E-04 (1,3,9) -0.319712 (2,2,9) -2.56719
(1,2,10): (1,1,10) 0.145462 (1,2,9) 1.713057E-04 (1,3,10) -0.319759 (2,2,10) -2.56738
(1,3,1): (1,2,1) 0.319578 (1,3,2) 5.596868E-04 (1,4,1) -0.570626 (2,3,1) -2.48989
(1,3,2): (1,2,2) 0.319547 (1,3,1) -5.596868E-04 (1,3,3) 4.872217E-04 (1,4,2) -0.570625 (2,3,2) -2.49008
(1,3,3): (1,2,3) 0.319551 (1,3,2) -4.872217E-04 (1,3,4) 5.695956E-04 (1,4,3) -0.570661 (2,3,3) -2.49013
(1,3,4): (1,2,4) 0.319568 (1,3,3) -5.695956E-04 (1,3,5) 6.048009E-04 (1,4,4) -0.570703 (2,3,4) -2.49016
(1,3,5): (1,2,5) 0.319594 (1,3,4) -6.048009E-04 (1,3,6) 5.618260E-04 (1,4,5) -0.570748 (2,3,5) -2.49019
(1,3,6): (1,2,6) 0.319621 (1,3,5) -5.618260E-04 (1,3,7) 4.450389E-04 (1,4,6) -0.570792 (2,3,6) -2.49022
(1,3,7): (1,2,7) 0.319647 (1,3,6) -4.450389E-04 (1,3,8) 2.661789E-04 (1,4,7) -0.570830 (2,3,7) -2.49024
(1,3,8): (1,2,8) 0.319674 (1,3,7) -2.661789E-04 (1,3,9) 3.192399E-05 (1,4,8) -0.570861 (2,3,8) -2.49024
(1,3,9): (1,2,9) 0.319712 (1,3,8) -3.192399E-05 (1,3,10) -2.184161E-04 (1,4,9) -0.570894 (2,3,9) -2.49025
(1,3,10): (1,2,10) 0.319759 (1,3,9) 2.184161E-04 (1,4,10) -0.570931 (2,3,10) -2.49047
(1,4,1): (1,3,1) 0.570626 (1,4,2) 5.589303E-04 (1,5,1) -1.00245 (2,4,1) -2.30908
(1,4,2): (1,3,2) 0.570625 (1,4,1) -5.589303E-04 (1,4,3) 4.527755E-04 (1,5,2) -1.00254 (2,4,2) -2.30930
(1,4,3): (1,3,3) 0.570661 (1,4,2) -4.527755E-04 (1,4,4) 5.296741E-04 (1,5,3) -1.00262 (2,4,3) -2.30933
(1,4,4): (1,3,4) 0.570703 (1,4,3) -5.296741E-04 (1,4,5) 5.610925E-04 (1,5,4) -1.00269 (2,4,4) -2.30936
(1,4,5): (1,3,5) 0.570748 (1,4,4) -5.610925E-04 (1,4,6) 5.193606E-04 (1,5,5) -1.00275 (2,4,5) -2.30938
(1,4,6): (1,3,6) 0.570792 (1,4,5) -5.193606E-04 (1,4,7) 4.090143E-04 (1,5,6) -1.00281 (2,4,6) -2.30939
(1,4,7): (1,3,7) 0.570830 (1,4,6) -4.090143E-04 (1,4,8) 2.356653E-04 (1,5,7) -1.00286 (2,4,7) -2.30940
(1,4,8): (1,3,8) 0.570861 (1,4,7) -2.356653E-04 (1,4,9) -7.073444E-07 (1,5,8) -1.00289 (2,4,8) -2.30939
(1,4,9): (1,3,9) 0.570894 (1,4,8) 7.073444E-07 (1,4,10) -2.537086E-04 (1,5,9) -1.00292 (2,4,9) -2.30940
(1,4,10): (1,3,10) 0.570931 (1,4,9) 2.537086E-04 (1,5,10) -1.00292 (2,4,10) -2.30965
(1,5,1): (1,4,1) 1.00245 (1,5,2) 4.699914E-04 (1,6,1) -1.84949 (2,5,1) -1.89363
(1,5,2): (1,4,2) 1.00254 (1,5,1) -4.699914E-04 (1,5,3) 3.761189E-04 (1,6,2) -1.84964 (2,5,2) -1.89385
(1,5,3): (1,4,3) 1.00262 (1,5,2) -3.761189E-04 (1,5,4) 4.644800E-04 (1,6,3) -1.84973 (2,5,3) -1.89385
(1,5,4): (1,4,4) 1.00269 (1,5,3) -4.644800E-04 (1,5,5) 4.976649E-04 (1,6,4) -1.84983 (2,5,4) -1.89386
(1,5,5): (1,4,5) 1.00275 (1,5,4) -4.976649E-04 (1,5,6) 4.617169E-04 (1,6,5) -1.84992 (2,5,5) -1.89386
(1,5,6): (1,4,6) 1.00281 (1,5,5) -4.617169E-04 (1,5,7) 3.639048E-04 (1,6,6) -1.85000 (2,5,6) -1.89386
(1,5,7): (1,4,7) 1.00286 (1,5,6) -3.639048E-04 (1,5,8) 2.041867E-04 (1,6,7) -1.85006 (2,5,7) -1.89384
(1,5,8): (1,4,8) 1.00289 (1,5,7) -2.041867E-04 (1,5,9) -2.390087E-05 (1,6,8) -1.85010 (2,5,8) -1.89382
(1,5,9): (1,4,9) 1.00292 (1,5,8) 2.390087E-05 (1,5,10) -2.549233E-04 (1,6,9) -1.85011 (2,5,9) -1.89384
(1,5,10): (1,4,10) 1.00292 (1,5,9) 2.549233E-04 (1,6,10) -1.85005 (2,5,10) -1.89408
(1,6,1): (1,5,1) 1.84949 (1,6,2) 3.129227E-04 (1,7,1) -3.65176 (2,6,1) -0.937908
(1,6,2): (1,5,2) 1.84964 (1,6,1) -3.129227E-04 (1,6,3) 2.884210E-04 (1,7,2) -3.65193 (2,6,2) -0.938068
(1,6,3): (1,5,3) 1.84973 (1,6,2) -2.884210E-04 (1,6,4) 3.755621E-04 (1,7,3) -3.65203 (2,6,3) -0.938044
(1,6,4): (1,5,4) 1.84983 (1,6,3) -3.755621E-04 (1,6,5) 4.086211E-04 (1,7,4) -3.65216 (2,6,4) -0.938013
(1,6,5): (1,5,5) 1.84992 (1,6,4) -4.086211E-04 (1,6,6) 3.823156E-04 (1,7,5) -3.65230 (2,6,5) -0.937980
(1,6,6): (1,5,6) 1.85000 (1,6,5) -3.823156E-04 (1,6,7) 3.046807E-04 (1,7,6) -3.65243 (2,6,6) -0.937944
(1,6,7): (1,5,7) 1.85006 (1,6,6) -3.046807E-04 (1,6,8) 1.709346E-04 (1,7,7) -3.65253 (2,6,7) -0.937901
(1,6,8): (1,5,8) 1.85010 (1,6,7) -1.709346E-04 (1,6,9) -2.923981E-05 (1,7,8) -3.65258 (2,6,8) -0.937855
(1,6,9): (1,5,9) 1.85011 (1,6,8) 2.923981E-05 (1,6,10) -1.929078E-04 (1,7,9) -3.65259 (2,6,9) -0.937871
(1,6,10): (1,5,10) 1.85005 (1,6,9) 1.929078E-04 (1,7,10) -3.65259 (2,6,10) -0.937859
(1,7,1): (1,6,1) 3.65176 (1,7,2) 1.413223E-04 (1,8,1) -7.67827 (2,7,1) 1.28499
(1,7,2): (1,6,2) 3.65193 (1,7,1) -1.413223E-04 (1,7,3) 1.914858E-04 (1,8,2) -7.67841 (2,7,2) 1.28496
(1,7,3): (1,6,3) 3.65203 (1,7,2) -1.914858E-04 (1,7,4) 2.480419E-04 (1,8,3) -7.67860 (2,7,3) 1.28503
(1,7,4): (1,6,4) 3.65216 (1,7,3) -2.480419E-04 (1,7,5) 2.714889E-04 (1,8,4) -7.67883 (2,7,4) 1.28512
(1,7,5): (1,6,5) 3.65230 (1,7,4) -2.714889E-04 (1,7,6) 2.571249E-04 (1,8,5) -7.67909 (2,7,5) 1.28522
(1,7,6): (1,6,6) 3.65243 (1,7,5) -2.571249E-04 (1,7,7) 2.096092E-04 (1,8,6) -7.67933 (2,7,6) 1.28533
(1,7,7): (1,6,7) 3.65253 (1,7,6) -2.096092E-04 (1,7,8) 1.212709E-04 (1,8,7) -7.67952 (2,7,7) 1.28543
(1,7,8): (1,6,8) 3.65258 (1,7,7) -1.212709E-04 (1,7,9) -2.775794E-05 (1,8,8) -7.67963 (2,7,8) 1.28552
(1,7,9): (1,6,9) 3.65259 (1,7,8) 2.775794E-05 (1,7,10) -1.956574E-04 (1,8,9) -7.67961 (2,7,9) 1.28558
(1,7,10): (1,6,10) 3.65259 (1,7,9) 1.956574E-04 (1,8,10) -7.67942 (2,7,10) 1.28543
(1,8,1): (1,7,1) 7.67827 (1,8,2) 1.373383E-06 (1,9,1) 4.94595 (2,8,1) 6.61832
(1,8,2): (1,7,2) 7.67841 (1,8,1) -1.373383E-06 (1,8,3) 1.188096E-05 (1,9,2) 4.94586 (2,8,2) 6.61841
(1,8,3): (1,7,3) 7.67860 (1,8,2) -1.188096E-05 (1,8,4) 1.708451E-05 (1,9,3) 4.94597 (2,8,3) 6.61859
(1,8,4): (1,7,4) 7.67883 (1,8,3) -1.708451E-05 (1,8,5) 1.941725E-05 (1,9,4) 4.94615 (2,8,4) 6.61882
(1,8,5): (1,7,5) 7.67909 (1,8,4) -1.941725E-05 (1,8,6) 1.929643E-05 (1,9,5) 4.94638 (2,8,5) 6.61909
(1,8,6): (1,7,6) 7.67933 (1,8,5) -1.929643E-05 (1,8,7) 1.715978E-05 (1,9,6) 4.94662 (2,8,6) 6.61936
(1,8,7): (1,7,7) 7.67952 (1,8,6) -1.715978E-05 (1,8,8) 1.269027E-05 (1,9,7) 4.94685 (2,8,7) 6.61960
(1,8,8): (1,7,8) 7.67963 (1,8,7) -1.269027E-05 (1,8,9) 4.853695E-06 (1,9,8) 4.94705 (2,8,8) 6.61978
(1,8,9): (1,7,9) 7.67961 (1,8,8) -4.853695E-06 (1,8,10) -6.230102E-06 (1,9,9) 4.94719 (2,8,9) 6.61986
(1,8,10): (1,7,10) 7.67942 (1,8,9) 6.230102E-06 (1,9,10) 4.94730 (2,8,10) 6.61983
(1,9,1): (1,8,1) -4.94595 (1,9,2) -9.147661E-05 (1,10,1) 2.13667 (2,9,1) 2.80954
(1,9,2): (1,8,2) -4.94586 (1,9,1) 9.147661E-05 (1,9,3) 1.152930E-04 (1,10,2) 2.13664 (2,9,2) 2.80968
(1,9,3): (1,8,3) -4.94597 (1,9,2) -1.152930E-04 (1,9,4) 2.025375E-04 (1,10,3) 2.13672 (2,9,3) 2.80979
(1,9,4): (1,8,4) -4.94615 (1,9,3) -2.025375E-04 (1,9,5) 2.462688E-04 (1,10,4) 2.13682 (2,9,4) 2.80990
(1,9,5): (1,8,5) -4.94638 (1,9,4) -2.462688E-04 (1,9,6) 2.578543E-04 (1,10,5) 2.13694 (2,9,5) 2.81002
(1,9,6): (1,8,6) -4.94662 (1,9,5) -2.578543E-04 (1,9,7) 2.448311E-04 (1,10,6) 2.13707 (2,9,6) 2.81014
(1,9,7): (1,8,7) -4.94685 (1,9,6) -2.448311E-04 (1,9,8) 2.067562E-04 (1,10,7) 2.13720 (2,9,7) 2.81024
(1,9,8): (1,8,8) -4.94705 (1,9,7) -2.067562E-04 (1,9,9) 1.501566E-04 (1,10,8) 2.13732 (2,9,8) 2.81031
(1,9,9): (1,8,9) -4.94719 (1,9,8) -1.501566E-04 (1,9,10) 9.754108E-05 (1,10,9) 2.13742 (2,9,9) 2.81032
(1,9,10): (1,8,10) -4.94730 (1,9,9) -9.754108E-05 (1,10,10) 2.13747 (2,9,10) 2.81039
(1,10,1): (1,9,1) -2.13667 (1,10,2) -1.269842E-04 (1,11,1) 0.926049 (2,10,1) 1.21022
(1,10,2): (1,9,2) -2.13664 (1,10,1) 1.269842E-04 (1,10,3) 1.900272E-04 (1,11,2) 0.926097 (2,10,2) 1.21042
(1,10,3): (1,9,3) -2.13672 (1,10,2) -1.900272E-04 (1,10,4) 3.011641E-04 (1,11,3) 0.926148 (2,10,3) 1.21049
(1,10,4): (1,9,4) -2.13682 (1,10,3) -3.011641E-04 (1,10,5) 3.643586E-04 (1,11,4) 0.926207 (2,10,4) 1.21054
(1,10,5): (1,9,5) -2.13694 (1,10,4) -3.643586E-04 (1,10,6) 3.874936E-04 (1,11,5) 0.926277 (2,10,5) 1.21059
(1,10,6): (1,9,6) -2.13707 (1,10,5) -3.874936E-04 (1,10,7) 3.739341E-04 (1,11,6) 0.926356 (2,10,6) 1.21064
(1,10,7): (1,9,7) -2.13720 (1,10,6) -3.739341E-04 (1,10,8) 3.245857E-04 (1,11,7) 0.926435 (2,10,7) 1.21067
(1,10,8): (1,9,8) -2.13732 (1,10,7) -3.245857E-04 (1,10,9) 2.497028E-04 (1,11,8) 0.926511 (2,10,8) 1.21069
(1,10,9): (1,9,9) -2.13742 (1,10,8) -2.497028E-04 (1,10,10) 1.479812E-04 (1,11,9) 0.926589 (2,10,9) 1.21070
(1,10,10): (1,9,10) -2.13747 (1,10,9) -1.479812E-04 (1,11,10) 0.926651 (2,10,10) 1.21068
(1,11,1): (1,10,1) -0.926049 (1,11,2) -8.041516E-05 (1,12,1) 0.401748 (2,11,1) 0.524373
(1,11,2): (1,10,2) -0.926097 (1,11,1) 8.041516E-05 (1,11,3) 2.400924E-04 (1,12,2) 0.401835 (2,11,2) 0.524577
(1,11,3): (1,10,3) -0.926148 (1,11,2) -2.400924E-04 (1,11,4) 3.593358E-04 (1,12,3) 0.401871 (2,11,3) 0.524612
(1,11,4): (1,10,4) -0.926207 (1,11,3) -3.593358E-04 (1,11,5) 4.343124E-04 (1,12,4) 0.401910 (2,11,4) 0.524636
(1,11,5): (1,10,5) -0.926277 (1,11,4) -4.343124E-04 (1,11,6) 4.652976E-04 (1,12,5) 0.401957 (2,11,5) 0.524656
(1,11,6): (1,10,6) -0.926356 (1,11,5) -4.652976E-04 (1,11,7) 4.520321E-04 (1,12,6) 0.402006 (2,11,6) 0.524671
(1,11,7): (1,10,7) -0.926435 (1,11,6) -4.520321E-04 (1,11,8) 3.994297E-04 (1,12,7) 0.402053 (2,11,7) 0.524672
(1,11,8): (1,10,8) -0.926511 (1,11,7) -3.994297E-04 (1,11,9) 3.264111E-04 (1,12,8) 0.402092 (2,11,8) 0.524653
(1,11,9): (1,10,9) -0.926589 (1,11,8) -3.264111E-04 (1,11,10) 2.101607E-04 (1,12,9) 0.402124 (2,11,9) 0.524647
(1,11,10): (1,10,10) -0.926651 (1,11,9) -2.101607E-04 (1,12,10) 0.402150 (2,11,10) 0.524617
(1,12,1): (1,11,1) -0.401748 (1,12,2) 5.770740E-06 (1,13,1) 0.173830 (2,12,1) 0.228347
(1,12,2): (1,11,2) -0.401835 (1,12,1) -5.770740E-06 (1,12,3) 2.759414E-04 (1,13,2) 0.173900 (2,12,2) 0.228491
(1,12,3): (1,11,3) -0.401871 (1,12,2) -2.759414E-04 (1,12,4) 3.984539E-04 (1,13,3) 0.173925 (2,12,3) 0.228510
(1,12,4): (1,11,4) -0.401910 (1,12,3) -3.984539E-04 (1,12,5) 4.800653E-04 (1,13,4) 0.173951 (2,12,4) 0.228519
(1,12,5): (1,11,5) -0.401957 (1,12,4) -4.800653E-04 (1,12,6) 5.146615E-04 (1,13,5) 0.173981 (2,12,5) 0.228523
(1,12,6): (1,11,6) -0.402006 (1,12,5) -5.146615E-04 (1,12,7) 4.981483E-04 (1,13,6) 0.174010 (2,12,6) 0.228521
(1,12,7): (1,11,7) -0.402053 (1,12,6) -4.981483E-04 (1,12,8) 4.373555E-04 (1,13,7) 0.174034 (2,12,7) 0.228503
(1,12,8): (1,11,8) -0.402092 (1,12,7) -4.373555E-04 (1,12,9) 3.581009E-04 (1,13,8) 0.174042 (2,12,8) 0.228462
(1,12,9): (1,11,9) -0.402124 (1,12,8) -3.581009E-04 (1,12,10) 2.366157E-04 (1,13,9) 0.174029 (2,12,9) 0.228422
(1,12,10): (1,11,10) -0.402150 (1,12,9) -2.366157E-04 (1,13,10) 0.173999 (2,12,10) 0.228355
(1,13,1): (1,12,1) -0.173830 (1,13,2) 7.552682E-05 (1,14,1) 7.355200E-02 (2,13,1) 0.100654
(1,13,2): (1,12,2) -0.173900 (1,13,1) -7.552682E-05 (1,13,3) 3.005287E-04 (1,14,2) 7.359495E-02 (2,13,2) 0.100740
(1,13,3): (1,12,3) -0.173925 (1,13,2) -3.005287E-04 (1,13,4) 4.247393E-04 (1,14,3) 7.360884E-02 (2,13,3) 0.100748
(1,13,4): (1,12,4) -0.173951 (1,13,3) -4.247393E-04 (1,13,5) 5.090935E-04 (1,14,4) 7.362287E-02 (2,13,4) 0.100749
(1,13,5): (1,12,5) -0.173981 (1,13,4) -5.090935E-04 (1,13,6) 5.440702E-04 (1,14,5) 7.363706E-02 (2,13,5) 0.100744
(1,13,6): (1,12,6) -0.174010 (1,13,5) -5.440702E-04 (1,13,7) 5.211902E-04 (1,14,6) 7.364941E-02 (2,13,6) 0.100732
(1,13,7): (1,12,7) -0.174034 (1,13,6) -5.211902E-04 (1,13,8) 4.457297E-04 (1,14,7) 7.365479E-02 (2,13,7) 0.100707
(1,13,8): (1,12,8) -0.174042 (1,13,7) -4.457297E-04 (1,13,9) 3.442933E-04 (1,14,8) 7.364585E-02 (2,13,8) 0.100660
(1,13,9): (1,12,9) -0.174029 (1,13,8) -3.442933E-04 (1,13,10) 2.069194E-04 (1,14,9) 7.361294E-02 (2,13,9) 0.100603
(1,13,10): (1,12,10) -0.173999 (1,13,9) -2.069194E-04 (1,14,10) 7.356039E-02 (2,13,10) 0.100509
(1,14,1): (1,13,1) -7.355200E-02 (1,14,2) 1.184025E-04 (1,15,1) 2.699587E-02 (2,14,1) 4.675207E-02
(1,14,2): (1,13,2) -7.359495E-02 (1,14,1) -1.184025E-04 (1,14,3) 3.143609E-04 (1,15,2) 2.701841E-02 (2,14,2) 4.680146E-02
(1,14,3): (1,13,3) -7.360884E-02 (1,14,2) -3.143609E-04 (1,14,4) 4.387143E-04 (1,15,3) 2.702293E-02 (2,14,3) 4.680170E-02
(1,14,4): (1,13,4) -7.362287E-02 (1,14,3) -4.387143E-04 (1,14,5) 5.231814E-04 (1,15,4) 2.702389E-02 (2,14,4) 4.679698E-02
(1,14,5): (1,13,5) -7.363706E-02 (1,14,4) -5.231814E-04 (1,14,6) 5.562802E-04 (1,15,5) 2.702286E-02 (2,14,5) 4.678761E-02
(1,14,6): (1,13,6) -7.364941E-02 (1,14,5) -5.562802E-04 (1,14,7) 5.264114E-04 (1,15,6) 2.701818E-02 (2,14,6) 4.677127E-02
(1,14,7): (1,13,7) -7.365479E-02 (1,14,6) -5.264114E-04 (1,14,8) 4.366518E-04 (1,15,7) 2.700745E-02 (2,14,7) 4.674221E-02
(1,14,8): (1,13,8) -7.364585E-02 (1,14,7) -4.366518E-04 (1,14,9) 3.113091E-04 (1,15,8) 2.698847E-02 (2,14,8) 4.669614E-02
(1,14,9): (1,13,9) -7.361294E-02 (1,14,8) -3.113091E-04 (1,14,10) 1.543982E-04 (1,15,9) 2.695602E-02 (2,14,9) 4.664062E-02
(1,14,10): (1,13,10) -7.356039E-02 (1,14,9) -1.543982E-04 (1,15,10) 2.689206E-02 (2,14,10) 4.655072E-02
[...]
(3,5,3): (2,5,3) 1.89380 (3,4,3) 9.99078 (3,5,2) -4.260567E-03 (3,5,4) 5.382006E-03 (3,6,3) -11.8908
(3,5,4): (2,5,4) 1.89385 (3,4,4) 9.99139 (3,5,3) -5.382006E-03 (3,5,5) 5.859122E-03 (3,6,4) -11.8915
(3,5,5): (2,5,5) 1.89390 (3,4,5) 9.99197 (3,5,4) -5.859122E-03 (3,5,6) 5.545932E-03 (3,6,5) -11.8920
(3,5,6): (2,5,6) 1.89393 (3,4,6) 9.99243 (3,5,5) -5.545932E-03 (3,5,7) 4.564988E-03 (3,6,6) -11.8924
(3,5,7): (2,5,7) 1.89395 (3,4,7) 9.99270 (3,5,6) -4.564988E-03 (3,5,8) 2.950510E-03 (3,6,7) -11.8925
(3,5,8): (2,5,8) 1.89393 (3,4,8) 9.99276 (3,5,7) -2.950510E-03 (3,5,9) 7.159471E-04 (3,6,8) -11.8924
(3,5,9): (2,5,9) 1.89381 (3,4,9) 9.99267 (3,5,8) -7.159471E-04 (3,5,10) -1.933299E-03 (3,6,9) -11.8921
(3,5,10): (2,5,10) 1.89343 (3,4,10) 9.99236 (3,5,9) 1.933299E-03 (3,6,10) -11.8914
(3,6,1): (2,6,1) 0.936992 (3,5,1) 11.8891 (3,6,2) 2.554384E-03 (3,7,1) -12.8316
(3,6,2): (2,6,2) 0.936993 (3,5,2) 11.8902 (3,6,1) -2.554384E-03 (3,6,3) 3.954398E-03 (3,7,2) -12.8326
(3,6,3): (2,6,3) 0.936990 (3,5,3) 11.8908 (3,6,2) -3.954398E-03 (3,6,4) 5.063536E-03 (3,7,3) -12.8332
(3,6,4): (2,6,4) 0.936994 (3,5,4) 11.8915 (3,6,3) -5.063536E-03 (3,6,5) 5.578940E-03 (3,7,4) -12.8337
(3,6,5): (2,6,5) 0.936990 (3,5,5) 11.8920 (3,6,4) -5.578940E-03 (3,6,6) 5.352485E-03 (3,7,5) -12.8342
(3,6,6): (2,6,6) 0.936978 (3,5,6) 11.8924 (3,6,5) -5.352485E-03 (3,6,7) 4.489717E-03 (3,7,6) -12.8344
(3,6,7): (2,6,7) 0.936958 (3,5,7) 11.8925 (3,6,6) -4.489717E-03 (3,6,8) 3.003930E-03 (3,7,7) -12.8344
(3,6,8): (2,6,8) 0.936916 (3,5,8) 11.8924 (3,6,7) -3.003930E-03 (3,6,9) 8.816408E-04 (3,7,8) -12.8341
(3,6,9): (2,6,9) 0.936766 (3,5,9) 11.8921 (3,6,8) -8.816408E-04 (3,6,10) -1.580129E-03 (3,7,9) -12.8335
(3,6,10): (2,6,10) 0.936683 (3,5,10) 11.8914 (3,6,9) 1.580129E-03 (3,7,10) -12.8327
(3,7,1): (2,7,1) -1.28850 (3,6,1) 12.8316 (3,7,2) 2.050865E-03 (3,8,1) -11.5474
(3,7,2): (2,7,2) -1.28855 (3,6,2) 12.8326 (3,7,1) -2.050865E-03 (3,7,3) 3.677750E-03 (3,8,2) -11.5482
(3,7,3): (2,7,3) -1.28861 (3,6,3) 12.8332 (3,7,2) -3.677750E-03 (3,7,4) 4.786384E-03 (3,8,3) -11.5487
(3,7,4): (2,7,4) -1.28869 (3,6,4) 12.8337 (3,7,3) -4.786384E-03 (3,7,5) 5.355029E-03 (3,8,4) -11.5490
(3,7,5): (2,7,5) -1.28878 (3,6,5) 12.8342 (3,7,4) -5.355029E-03 (3,7,6) 5.232599E-03 (3,8,5) -11.5492
(3,7,6): (2,7,6) -1.28887 (3,6,6) 12.8344 (3,7,5) -5.232599E-03 (3,7,7) 4.498506E-03 (3,8,6) -11.5493
(3,7,7): (2,7,7) -1.28896 (3,6,7) 12.8344 (3,7,6) -4.498506E-03 (3,7,8) 3.153512E-03 (3,8,7) -11.5490
(3,7,8): (2,7,8) -1.28904 (3,6,8) 12.8341 (3,7,7) -3.153512E-03 (3,7,9) 1.168204E-03 (3,8,8) -11.5485
(3,7,9): (2,7,9) -1.28915 (3,6,9) 12.8335 (3,7,8) -1.168204E-03 (3,7,10) -1.142519E-03 (3,8,9) -11.5477
(3,7,10): (2,7,10) -1.28944 (3,6,10) 12.8327 (3,7,9) 1.142519E-03 (3,8,10) -11.5467
(3,8,1): (2,8,1) -6.60569 (3,7,1) 11.5474 (3,8,2) 1.637327E-03 (3,9,1) -4.94488
(3,8,2): (2,8,2) -6.60578 (3,7,2) 11.5482 (3,8,1) -1.637327E-03 (3,8,3) 3.473034E-03 (3,9,2) -4.94535
(3,8,3): (2,8,3) -6.60596 (3,7,3) 11.5487 (3,8,2) -3.473034E-03 (3,8,4) 4.604322E-03 (3,9,3) -4.94547
(3,8,4): (2,8,4) -6.60620 (3,7,4) 11.5490 (3,8,3) -4.604322E-03 (3,8,5) 5.241158E-03 (3,9,4) -4.94548
(3,8,5): (2,8,5) -6.60646 (3,7,5) 11.5492 (3,8,4) -5.241158E-03 (3,8,6) 5.228283E-03 (3,9,5) -4.94532
(3,8,6): (2,8,6) -6.60673 (3,7,6) 11.5493 (3,8,5) -5.228283E-03 (3,8,7) 4.613319E-03 (3,9,6) -4.94495
(3,8,7): (2,8,7) -6.60697 (3,7,7) 11.5490 (3,8,6) -4.613319E-03 (3,8,8) 3.397938E-03 (3,9,7) -4.94441
(3,8,8): (2,8,8) -6.60714 (3,7,8) 11.5485 (3,8,7) -3.397938E-03 (3,8,9) 1.564250E-03 (3,9,8) -4.94373
(3,8,9): (2,8,9) -6.60722 (3,7,9) 11.5477 (3,8,8) -1.564250E-03 (3,8,10) -6.100824E-04 (3,9,9) -4.94287
(3,8,10): (2,8,10) -6.60719 (3,7,10) 11.5467 (3,8,9) 6.100824E-04 (3,9,10) -4.94184
(3,9,1): (2,9,1) -2.81276 (3,8,1) 4.94488 (3,9,2) 1.402611E-03 (3,10,1) -2.13423
(3,9,2): (2,9,2) -2.81291 (3,8,2) 4.94535 (3,9,1) -1.402611E-03 (3,9,3) 3.413687E-03 (3,10,2) -2.13430
(3,9,3): (2,9,3) -2.81300 (3,8,3) 4.94547 (3,9,2) -3.413687E-03 (3,9,4) 4.600644E-03 (3,10,3) -2.13421
(3,9,4): (2,9,4) -2.81309 (3,8,4) 4.94548 (3,9,3) -4.600644E-03 (3,9,5) 5.322164E-03 (3,10,4) -2.13400
(3,9,5): (2,9,5) -2.81320 (3,8,5) 4.94532 (3,9,4) -5.322164E-03 (3,9,6) 5.411629E-03 (3,10,5) -2.13364
(3,9,6): (2,9,6) -2.81329 (3,8,6) 4.94495 (3,9,5) -5.411629E-03 (3,9,7) 4.881057E-03 (3,10,6) -2.13312
(3,9,7): (2,9,7) -2.81336 (3,8,7) 4.94441 (3,9,6) -4.881057E-03 (3,9,8) 3.739682E-03 (3,10,7) -2.13249
(3,9,8): (2,9,8) -2.81340 (3,8,8) 4.94373 (3,9,7) -3.739682E-03 (3,9,9) 1.995705E-03 (3,10,8) -2.13181
(3,9,9): (2,9,9) -2.81338 (3,8,9) 4.94287 (3,9,8) -1.995705E-03 (3,9,10) -9.518134E-05 (3,10,9) -2.13106
(3,9,10): (2,9,10) -2.81316 (3,8,10) 4.94184 (3,9,9) 9.518134E-05 (3,10,10) -2.13029
(3,10,1): (2,10,1) -1.21203 (3,9,1) 2.13423 (3,10,2) 1.366708E-03 (3,11,1) -0.923468
(3,10,2): (2,10,2) -1.21216 (3,9,2) 2.13430 (3,10,1) -1.366708E-03 (3,10,3) 3.459404E-03 (3,11,2) -0.923255
(3,10,3): (2,10,3) -1.21220 (3,9,3) 2.13421 (3,10,2) -3.459404E-03 (3,10,4) 4.703139E-03 (3,11,3) -0.923046
(3,10,4): (2,10,4) -1.21222 (3,9,4) 2.13400 (3,10,3) -4.703139E-03 (3,10,5) 5.502308E-03 (3,11,4) -0.922729
(3,10,5): (2,10,5) -1.21225 (3,9,5) 2.13364 (3,10,4) -5.502308E-03 (3,10,6) 5.674466E-03 (3,11,5) -0.922297
(3,10,6): (2,10,6) -1.21226 (3,9,6) 2.13312 (3,10,5) -5.674466E-03 (3,10,7) 5.193352E-03 (3,11,6) -0.921754
(3,10,7): (2,10,7) -1.21225 (3,9,7) 2.13249 (3,10,6) -5.193352E-03 (3,10,8) 4.079519E-03 (3,11,7) -0.921180
(3,10,8): (2,10,8) -1.21221 (3,9,8) 2.13181 (3,10,7) -4.079519E-03 (3,10,9) 2.373624E-03 (3,11,8) -0.920632
(3,10,9): (2,10,9) -1.21210 (3,9,9) 2.13106 (3,10,8) -2.373624E-03 (3,10,10) 2.862923E-04 (3,11,9) -0.920092
(3,10,10): (2,10,10) -1.21194 (3,9,10) 2.13029 (3,10,9) -2.862923E-04 (3,11,10) -0.919678
(3,11,1): (2,11,1) -0.525695 (3,10,1) 0.923468 (3,11,2) 1.473327E-03 (3,12,1) -0.398686
(3,11,2): (2,11,2) -0.525767 (3,10,2) 0.923255 (3,11,1) -1.473327E-03 (3,11,3) 3.563858E-03 (3,12,2) -0.398363
(3,11,3): (2,11,3) -0.525776 (3,10,3) 0.923046 (3,11,2) -3.563858E-03 (3,11,4) 4.861763E-03 (3,12,3) -0.398126
(3,11,4): (2,11,4) -0.525768 (3,10,4) 0.922729 (3,11,3) -4.861763E-03 (3,11,5) 5.718502E-03 (3,12,4) -0.397788
(3,11,5): (2,11,5) -0.525750 (3,10,5) 0.922297 (3,11,4) -5.718502E-03 (3,11,6) 5.945690E-03 (3,12,5) -0.397384
(3,11,6): (2,11,6) -0.525718 (3,10,6) 0.921754 (3,11,5) -5.945690E-03 (3,11,7) 5.480316E-03 (3,12,6) -0.396932
(3,11,7): (2,11,7) -0.525669 (3,10,7) 0.921180 (3,11,6) -5.480316E-03 (3,11,8) 4.353436E-03 (3,12,7) -0.396509
(3,11,8): (2,11,8) -0.525591 (3,10,8) 0.920632 (3,11,7) -4.353436E-03 (3,11,9) 2.644003E-03 (3,12,8) -0.396183
(3,11,9): (2,11,9) -0.525421 (3,10,9) 0.920092 (3,11,8) -2.644003E-03 (3,11,10) 4.932960E-04 (3,12,9) -0.395951
(3,11,10): (2,11,10) -0.525208 (3,10,10) 0.919678 (3,11,9) -4.932960E-04 (3,12,10) -0.395904
(3,12,1): (2,12,1) -0.229231 (3,11,1) 0.398686 (3,12,2) 1.635142E-03 (3,13,1) -0.170424
(3,12,2): (2,12,2) -0.229258 (3,11,2) 0.398363 (3,12,1) -1.635142E-03 (3,12,3) 3.682368E-03 (3,13,2) -0.170134
(3,12,3): (2,12,3) -0.229247 (3,11,3) 0.398126 (3,12,2) -3.682368E-03 (3,12,4) 5.030794E-03 (3,13,3) -0.169952
(3,12,4): (2,12,4) -0.229217 (3,11,4) 0.397788 (3,12,3) -5.030794E-03 (3,12,5) 5.920136E-03 (3,13,4) -0.169680
(3,12,5): (2,12,5) -0.229174 (3,11,5) 0.397384 (3,12,4) -5.920136E-03 (3,12,6) 6.171607E-03 (3,13,5) -0.169387
(3,12,6): (2,12,6) -0.229116 (3,11,6) 0.396932 (3,12,5) -6.171607E-03 (3,12,7) 5.692170E-03 (3,13,6) -0.169104
(3,12,7): (2,12,7) -0.229044 (3,11,7) 0.396509 (3,12,6) -5.692170E-03 (3,12,8) 4.516436E-03 (3,13,7) -0.168892
(3,12,8): (2,12,8) -0.228954 (3,11,8) 0.396183 (3,12,7) -4.516436E-03 (3,12,9) 2.759845E-03 (3,13,8) -0.168815
(3,12,9): (2,12,9) -0.228787 (3,11,9) 0.395951 (3,12,8) -2.759845E-03 (3,12,10) 5.170524E-04 (3,13,9) -0.168883
(3,12,10): (2,12,10) -0.228576 (3,11,10) 0.395904 (3,12,9) -5.170524E-04 (3,13,10) -0.169118
(3,13,1): (2,13,1) -0.101180 (3,12,1) 0.170424 (3,13,2) 1.779925E-03 (3,14,1) -7.054394E-02
(3,13,2): (2,13,2) -0.101181 (3,12,2) 0.170134 (3,13,1) -1.779925E-03 (3,13,3) 3.773295E-03 (3,14,2) -7.035233E-02
(3,13,3): (2,13,3) -0.101156 (3,12,3) 0.169952 (3,13,2) -3.773295E-03 (3,13,4) 5.167257E-03 (3,14,3) -7.028538E-02
(3,13,4): (2,13,4) -0.101114 (3,12,4) 0.169680 (3,13,3) -5.167257E-03 (3,13,5) 6.066504E-03 (3,14,4) -7.015129E-02
(3,13,5): (2,13,5) -0.101055 (3,12,5) 0.169387 (3,13,4) -6.066504E-03 (3,13,6) 6.313053E-03 (3,14,5) -7.003337E-02
(3,13,6): (2,13,6) -0.100981 (3,12,6) 0.169104 (3,13,5) -6.313053E-03 (3,13,7) 5.798357E-03 (3,14,6) -6.997198E-02
(3,13,7): (2,13,7) -0.100897 (3,12,7) 0.168892 (3,13,6) -5.798357E-03 (3,13,8) 4.554632E-03 (3,14,7) -7.000088E-02
(3,13,8): (2,13,8) -0.100806 (3,12,8) 0.168815 (3,13,7) -4.554632E-03 (3,13,9) 2.725787E-03 (3,14,8) -7.015388E-02
(3,13,9): (2,13,9) -0.100671 (3,12,9) 0.168883 (3,13,8) -2.725787E-03 (3,13,10) 3.997117E-04 (3,14,9) -7.042586E-02
(3,13,10): (2,13,10) -0.100516 (3,12,10) 0.169118 (3,13,9) -3.997117E-04 (3,14,10) -7.078275E-02
(3,14,1): (2,14,1) -4.704801E-02 (3,13,1) 7.054394E-02 (3,14,2) 1.875733E-03 (3,15,1) -2.518676E-02
(3,14,2): (2,14,2) -4.703498E-02 (3,13,2) 7.035233E-02 (3,14,1) -1.875733E-03 (3,14,3) 3.806767E-03 (3,15,2) -2.506734E-02
(3,14,3): (2,14,3) -4.700229E-02 (3,13,3) 7.028538E-02 (3,14,2) -3.806767E-03 (3,14,4) 5.234305E-03 (3,15,3) -2.512267E-02
(3,14,4): (2,14,4) -4.695320E-02 (3,13,4) 7.015129E-02 (3,14,3) -5.234305E-03 (3,14,5) 6.125464E-03 (3,15,4) -2.518330E-02
(3,14,5): (2,14,5) -4.688586E-02 (3,13,5) 7.003337E-02 (3,14,4) -6.125464E-03 (3,14,6) 6.343747E-03 (3,15,5) -2.529502E-02
(3,14,6): (2,14,6) -4.680238E-02 (3,13,6) 6.997198E-02 (3,14,5) -6.343747E-03 (3,14,7) 5.783904E-03 (3,15,6) -2.549141E-02
(3,14,7): (2,14,7) -4.671318E-02 (3,13,7) 7.000088E-02 (3,14,6) -5.783904E-03 (3,14,8) 4.478135E-03 (3,15,7) -2.576913E-02
(3,14,8): (2,14,8) -4.662642E-02 (3,13,8) 7.015388E-02 (3,14,7) -4.478135E-03 (3,14,9) 2.589796E-03 (3,15,8) -2.610598E-02
(3,14,9): (2,14,9) -4.652221E-02 (3,13,9) 7.042586E-02 (3,14,8) -2.589796E-03 (3,14,10) 2.212659E-04 (3,15,9) -2.645755E-02
(3,14,10): (2,14,10) -4.641759E-02 (3,13,10) 7.078275E-02 (3,14,9) -2.212659E-04 (3,15,10) -2.678164E-02
(3,15,1): (2,15,1) -2.716818E-02 (3,14,1) 2.518676E-02 (3,15,2) 1.935440E-03
(3,15,2): (2,15,2) -2.715548E-02 (3,14,2) 2.506734E-02 (3,15,1) -1.935440E-03 (3,15,3) 3.779103E-03
(3,15,3): (2,15,3) -2.712165E-02 (3,14,3) 2.512267E-02 (3,15,2) -3.779103E-03 (3,15,4) 5.203991E-03
(3,15,4): (2,15,4) -2.707604E-02 (3,14,4) 2.518330E-02 (3,15,3) -5.203991E-03 (3,15,5) 6.069603E-03
(3,15,5): (2,15,5) -2.701445E-02 (3,14,5) 2.529502E-02 (3,15,4) -6.069603E-03 (3,15,6) 6.245551E-03
(3,15,6): (2,15,6) -2.694089E-02 (3,14,6) 2.549141E-02 (3,15,5) -6.245551E-03 (3,15,7) 5.645044E-03
(3,15,7): (2,15,7) -2.686571E-02 (3,14,7) 2.576913E-02 (3,15,6) -5.645044E-03 (3,15,8) 4.309712E-03
(3,15,8): (2,15,8) -2.679385E-02 (3,14,8) 2.610598E-02 (3,15,7) -4.309712E-03 (3,15,9) 2.414011E-03
(3,15,9): (2,15,9) -2.670132E-02 (3,14,9) 2.645755E-02 (3,15,8) -2.414011E-03 (3,15,10) 5.921823E-05
(3,15,10): (2,15,10) -2.672243E-02 (3,14,10) 2.678164E-02 (3,15,9) -5.921823E-05
1
  HEAD IN LAYER   1 AT END OF TIME STEP   1 IN STRESS PERIOD    2
  ---------------------------------------------------------------------------

            1           2           3           4           5           6           7           8           9          10
 ........................................................................................................................
   1    45.59       45.59       45.59       45.59       45.59       45.59       45.59       45.59       45.59       45.59    
   2    45.59       45.59       45.59       45.59       45.59       45.59       45.59       45.59       45.59       45.59    
   3    45.58       45.58       45.58       45.58       45.58       45.58       45.58       45.58       45.58       45.58    
   4    45.56       45.56       45.56       45.56       45.56       45.56       45.56       45.56       45.56       45.56    
   5    45.52       45.52       45.52       45.52       45.52       45.52       45.52       45.52       45.52       45.52    
   6    45.45       45.45       45.45       45.45       45.45       45.45       45.45       45.45       45.45       45.45    
   7    45.32       45.32       45.32       45.32       45.32       45.32       45.32       45.32       45.32       45.32    
   8    45.02       45.02       45.02       45.02       45.02       45.02       45.02       45.02       45.02       45.02    
   9    45.21       45.21       45.21       45.21       45.21       45.21       45.21       45.21       45.21       45.21    
  10    45.29       45.29       45.29       45.29       45.29       45.29       45.29       45.29       45.29       45.29    
  11    45.33       45.33       45.33       45.33       45.33       45.33       45.33       45.33       45.33       45.33    
  12    45.34       45.34       45.34       45.34       45.34       45.34       45.34       45.34       45.34       45.34    
  13    45.35       45.35       45.35       45.35       45.35       45.35       45.35       45.35       45.35       45.35    
  14    45.35       45.35       45.35       45.35       45.35       45.35       45.35       45.35       45.35       45.35    
  15    45.35       45.35       45.35       45.35       45.35       45.35       45.35       45.35       45.35       45.35    
1
  HEAD IN LAYER   2 AT END OF TIME STEP   1 IN STRESS PERIOD    2
  ---------------------------------------------------------------------------

            1           2           3           4           5           6           7           8           9          10
 ........................................................................................................................
   1    45.53       45.53       45.53       45.53       45.53       45.53       45.53       45.53       45.53       45.53    
   2    45.52       45.52       45.52       45.52       45.52       45.52       45.52       45.52       45.52       45.52    
   3    45.51       45.51       45.51       45.51       45.51       45.51       45.51       45.51       45.51       45.51    
   4    45.50       45.50       45.50       45.50       45.50       45.50       45.50       45.50       45.50       45.50    
   5    45.47       45.47       45.47       45.47       45.47       45.47       45.47       45.47       45.47       45.47    
   6    45.43       45.43       45.43       45.43       45.43       45.43       45.43       45.43       45.43       45.43    
   7    45.35       45.35       45.35       45.35       45.35       45.35       45.35       45.35       45.35       45.35    
   8    45.19       45.19       45.19       45.19       45.19       45.19       45.19       45.19       45.19       45.19    
   9    45.29       45.29       45.29       45.29       45.29       45.29       45.29       45.29       45.29       45.29    
  10    45.33       45.33       45.33       45.33       45.33       45.33       45.33       45.33       45.33       45.33    
  11    45.34       45.34       45.34       45.34       45.34       45.34       45.34       45.34       45.34       45.34    
  12    45.35       45.35       45.35       45.35       45.35       45.35       45.35       45.35       45.35       45.35    
  13    45.35       45.35       45.35       45.35       45.35       45.35       45.35       45.35       45.35       45.35    
  14    45.35       45.35       45.35       45.35       45.35       45.35       45.35       45.35       45.35       45.35    
  15    45.35       45.35       45.35       45.35       45.35       45.35       45.36       45.36       45.36       45.36    
1
  HEAD IN LAYER   3 AT END OF TIME STEP   1 IN STRESS PERIOD    2
  ---------------------------------------------------------------------------

            1           2           3           4           5           6           7           8           9          10
 ........................................................................................................................
   1    45.46       45.46       45.46       45.46       45.46       45.46       45.46       45.46       45.46       45.46    
   2    45.45       45.45       45.45       45.45       45.45       45.45       45.45       45.45       45.45       45.45    
   3    45.45       45.45       45.45       45.45       45.45       45.45       45.45       45.45       45.45       45.45    
   4    45.43       45.43       45.43       45.43       45.43       45.43       45.43       45.43       45.43       45.43    
   5    45.42       45.42       45.42       45.42       45.42       45.42       45.42       45.42       45.42       45.42    
   6    45.40       45.40       45.40       45.40       45.40       45.40       45.40       45.40       45.40       45.40    
   7    45.38       45.38       45.38       45.38       45.38       45.38       45.38       45.38       45.38       45.38    
   8    45.37       45.37       45.37       45.37       45.37       45.37       45.37       45.37       45.37       45.37    
   9    45.36       45.36       45.36       45.36       45.36       45.36       45.36       45.36       45.36       45.36    
  10    45.36       45.36       45.36       45.36       45.36       45.36       45.36       45.36       45.36       45.36    
  11    45.36       45.36       45.36       45.36       45.36       45.36       45.36       45.36       45.36       45.36    
  12    45.36       45.36       45.36       45.36       45.36       45.36       45.36       45.36       45.36       45.36    
  13    45.36       45.36       45.36       45.36       45.36       45.36       45.36       45.36       45.36       45.36    
  14    45.36       45.36       45.36       45.36       45.36       45.36       45.36       45.36       45.36       45.36    
  15    45.36       45.36       45.36       45.36       45.36       45.36       45.36       45.36       45.36       45.36    

 HEAD WILL BE SAVED ON UNIT 1014 AT END OF TIME STEP    1, STRESS PERIOD    2


  VOLUME BUDGET FOR ENTIRE MODEL AT END OF TIME STEP    1, STRESS PERIOD   2
  ---------------------------------------------------------------------------------------------------

     CUMULATIVE VOLUME      L**3       RATES FOR THIS TIME STEP      L**3/T          PACKAGE NAME    
     ------------------                 ------------------------                     ----------------

           IN:                                      IN:
           ---                                      ---
                 RIV =           0.0000                   RIV =           0.0000     RIV_0           
                 RCH =         397.3000                   RCH =         191.8000     RCH             

            TOTAL IN =         397.3000              TOTAL IN =         191.8000

          OUT:                                     OUT:
          ----                                     ----
                 RIV =         398.7949                   RIV =         192.4609     RIV_0           
                 RCH =           0.0000                   RCH =           0.0000     RCH             

           TOTAL OUT =         398.7949             TOTAL OUT =         192.4609

            IN - OUT =           1.4949              IN - OUT =           0.6609

 PERCENT DISCREPANCY =          -0.38     PERCENT DISCREPANCY =          -0.34




         TIME SUMMARY AT END OF TIME STEP    1 IN STRESS PERIOD    2
                    SECONDS     MINUTES      HOURS       DAYS        YEARS
                    -----------------------------------------------------------
   TIME STEP LENGTH  86400.      1440.0      24.000      1.0000     2.73785E-03
 STRESS PERIOD TIME  86400.      1440.0      24.000      1.0000     2.73785E-03
         TOTAL TIME 1.72800E+05  2880.0      48.000      2.0000     5.47570E-03


end timestep

