                                   MODFLOW 6
                U.S. GEOLOGICAL SURVEY MODULAR HYDROLOGIC MODEL
                          GROUNDWATER FLOW MODEL (GWF)
                            VERSION 6.2.1 02/18/2021

   MODFLOW 6 compiled Feb 18 2021 08:24:05 with IFORT compiler (ver. 19.10.2)

This software has been approved for release by the U.S. Geological 
Survey (USGS). Although the software has been subjected to rigorous 
review, the USGS reserves the right to update the software as needed 
pursuant to further analysis and review. No warranty, expressed or 
implied, is made by the USGS or the U.S. Government as to the 
functionality of the software and related material nor shall the 
fact of release constitute any such warranty. Furthermore, the 
software is released on condition that neither the USGS nor the U.S. 
Government shall be held liable for any damages resulting from its 
authorized or unauthorized use. Also refer to the USGS Water 
Resources Software User Rights Notice for complete use, copyright, 
and distribution information.


System command used to initiate simulation:
..\bin\mf6.exe

MODFLOW was compiled using uniform precision.

Real Variables
  KIND: 8
  TINY (smallest non-zero value):    2.225074-308
  HUGE (largest value):    1.797693+308
  PRECISION: 15
  BIT SIZE: 64

Integer Variables
  KIND: 4
  HUGE (largest value): 2147483647
  BIT SIZE: 32

Long Integer Variables
  KIND: 8
  HUGE (largest value): 9223372036854775807
  BIT SIZE: 64

Logical Variables
  KIND: 4
  BIT SIZE: 32
 

 OPENED symp03.dis
 FILE TYPE:DIS6                   UNIT 1005   STATUS:OLD                 
 FORMAT:FORMATTED              ACCESS:SEQUENTIAL          
 ACTION:READ                


 OPENED symp03.ic
 FILE TYPE:IC6                    UNIT 1006   STATUS:OLD                 
 FORMAT:FORMATTED              ACCESS:SEQUENTIAL          
 ACTION:READ                


 OPENED symp03.npf
 FILE TYPE:NPF6                   UNIT 1007   STATUS:OLD                 
 FORMAT:FORMATTED              ACCESS:SEQUENTIAL          
 ACTION:READ                


 OPENED symp03.rcha
 FILE TYPE:RCH6                   UNIT 1008   STATUS:OLD                 
 FORMAT:FORMATTED              ACCESS:SEQUENTIAL          
 ACTION:READ                


 OPENED symp03.riv
 FILE TYPE:RIV6                   UNIT 1009   STATUS:OLD                 
 FORMAT:FORMATTED              ACCESS:SEQUENTIAL          
 ACTION:READ                


 OPENED symp03.oc
 FILE TYPE:OC6                    UNIT 1010   STATUS:OLD                 
 FORMAT:FORMATTED              ACCESS:SEQUENTIAL          
 ACTION:READ                


 OPENED symp03.wel
 FILE TYPE:WEL6                   UNIT 1011   STATUS:OLD                 
 FORMAT:FORMATTED              ACCESS:SEQUENTIAL          
 ACTION:READ                

 NAMEFILE OPTIONS:
    PACKAGE FLOWS WILL BE PRINTED FOR ALL MODEL PACKAGES
    FLOWS WILL BE SAVED TO BUDGET FILE SPECIFIED IN OUTPUT CONTROL

 DIS -- STRUCTURED GRID DISCRETIZATION PACKAGE, VERSION 2 : 3/27/2014 - INPUT READ FROM UNIT 1005


 # File generated by Flopy version 3.3.4 on 09/04/2021 at 21:05:28.
 PROCESSING DISCRETIZATION OPTIONS
 END OF DISCRETIZATION OPTIONS
 MODEL LENGTH UNIT IS UNDEFINED
 PROCESSING DISCRETIZATION DIMENSIONS
    NLAY =       3
    NROW =      15
    NCOL =      10
 END OF DISCRETIZATION DIMENSIONS
 PROCESSING GRIDDATA

                     DELR =   100.0000    

                     DELC =   100.0000    

 TOP ELEVATION OF LAYER 1 =   50.00000    

   MODEL LAYER BOTTOM EL. =   40.00000     FOR LAYER 1

   MODEL LAYER BOTTOM EL. =   35.00000     FOR LAYER 2

   MODEL LAYER BOTTOM EL. =   0.000000     FOR LAYER 3
 END PROCESSING GRIDDATA

 NPF -- NODE PROPERTY FLOW PACKAGE, VERSION 1, 3/30/2015 INPUT READ FROM UNIT 1007


 # File generated by Flopy version 3.3.4 on 09/04/2021 at 21:05:28.
 PROCESSING NPF OPTIONS
    CELL-BY-CELL FLOW INFORMATION WILL BE SAVED TO BINARY FILE WHENEVER ICBCFL IS NOT ZERO.
    SPECIFIC DISCHARGE WILL BE CALCULATED AT CELL CENTERS AND WRITTEN TO DATA-SPDIS IN BUDGET FILE WHEN REQUESTED.
 END OF NPF OPTIONS

 WEL   -- WEL PACKAGE, VERSION 8, 2/22/2014 INPUT READ FROM UNIT 1011
 # File generated by Flopy version 3.3.4 on 09/04/2021 at 21:05:28.

 PROCESSING WEL OPTIONS
    LISTS OF WEL CELLS WILL BE PRINTED.
    WEL FLOWS WILL BE PRINTED TO LISTING FILE.
    FLOWS WILL BE SAVED TO BUDGET FILE SPECIFIED IN OUTPUT CONTROL
 END OF WEL OPTIONS

 PROCESSING WEL DIMENSIONS
    MAXBOUND =       2
 END OF WEL DIMENSIONS

 RIV   -- RIV PACKAGE, VERSION 8, 2/22/2014 INPUT READ FROM UNIT 1009
 # File generated by Flopy version 3.3.4 on 09/04/2021 at 21:05:28.

 PROCESSING RIV OPTIONS
    RIV BOUNDARIES HAVE NAMES IN LAST COLUMN.
 END OF RIV OPTIONS

 PROCESSING RIV DIMENSIONS
    MAXBOUND =      10
 END OF RIV DIMENSIONS

 RCH   -- RCH PACKAGE, VERSION 8, 2/22/2014 INPUT READ FROM UNIT 1008
 # File generated by Flopy version 3.3.4 on 09/04/2021 at 21:05:28.

 PROCESSING RCH OPTIONS
    RECHARGE INPUT WILL BE READ AS ARRAY(S).
 END OF RCH OPTIONS

 IC -- INITIAL CONDITIONS PACKAGE, VERSION 8, 3/28/2015 INPUT READ FROM UNIT 1006
 # File generated by Flopy version 3.3.4 on 09/04/2021 at 21:05:28.
 PROCESSING GRIDDATA
 END PROCESSING GRIDDATA
 PROCESSING GRIDDATA

                ICELLTYPE = 1 FOR LAYER 1

                ICELLTYPE = 0 FOR LAYER 2

                ICELLTYPE = 0 FOR LAYER 3

                        K =   5.000000     FOR LAYER 1

                        K =  0.1000000     FOR LAYER 2

                        K =   10.00000     FOR LAYER 3
 K33 not provided.  Assuming K33 = K.
 K22 not provided.  Assuming K22 = K.
 END PROCESSING GRIDDATA
    BINARY GRID INFORMATION WILL BE WRITTEN TO:
      UNIT NUMBER: 1013
      FILE NAME: C:\_data\onedrive\work\symple\course_repo\symple_flopy\models\symple_ex05\symp03.dis.grb

 OPENED C:\_data\onedrive\work\symple\course_repo\symple_flopy\models\symple_ex05\symp03.dis.grb
 FILE TYPE:DATA(BINARY)   UNIT 1013   STATUS:REPLACE             
 FORMAT:UNFORMATTED            ACCESS:STREAM              
 ACTION:READWRITE           

      THE LAST TIME STEP WILL BE PRINTED
      THE LAST TIME STEP WILL BE PRINTED
 # File generated by Flopy version 3.3.4 on 09/04/2021 at 21:05:28.

 PROCESSING OC OPTIONS

    BUDGET INFORMATION WILL BE WRITTEN TO:
      UNIT NUMBER: 1014
      FILE NAME: symp03.cbb

 OPENED symp03.cbb
 FILE TYPE:DATA(BINARY)   UNIT 1014   STATUS:REPLACE             
 FORMAT:UNFORMATTED            ACCESS:STREAM              
 ACTION:READWRITE           

    HEAD INFORMATION WILL BE WRITTEN TO:
      UNIT NUMBER: 1015
      FILE NAME: symp03.hds

 OPENED symp03.hds
 FILE TYPE:DATA(BINARY)   UNIT 1015   STATUS:REPLACE             
 FORMAT:UNFORMATTED            ACCESS:STREAM              
 ACTION:READWRITE           

 END OF OC OPTIONS

start timestep kper="1" kstp="1" mode="normal"


 BEGIN READING OUTPUT CONTROL FOR STRESS PERIOD 1
      ALL TIME STEPS WILL BE SAVED
      ALL TIME STEPS WILL BE SAVED
      THE LAST TIME STEP WILL BE PRINTED

 END READING OUTPUT CONTROL FOR STRESS PERIOD 1
 ---------------------------------------------------
  WEL NO.    LAYER    ROW     COL     STRESS RATE   
 ---------------------------------------------------
     1         3       6       4    -100.000000     
 ---------------------------------------------------



                 RECHARGE =  0.1369863E-03
 UBDSV1 SAVING     FLOW-JA-FACE ON UNIT   1014 AT TIME STEP      1, STRESS PERIOD      1
 UBDSV06 SAVING       DATA-SPDIS IN MODEL SYMP03           PACKAGE NPF             CONNECTED TO MODEL SYMP03           PACKAGE NPF              ON UNIT   1014 AT TIME STEP      1, STRESS PERIOD      1
 UBDSV06 SAVING              WEL IN MODEL SYMP03           PACKAGE SYMP03          CONNECTED TO MODEL SYMP03           PACKAGE WEL_0            ON UNIT   1014 AT TIME STEP      1, STRESS PERIOD      1
 UBDSV06 SAVING              RIV IN MODEL SYMP03           PACKAGE SYMP03          CONNECTED TO MODEL SYMP03           PACKAGE RIV_0            ON UNIT   1014 AT TIME STEP      1, STRESS PERIOD      1
 UBDSV06 SAVING              RCH IN MODEL SYMP03           PACKAGE SYMP03          CONNECTED TO MODEL SYMP03           PACKAGE RCH              ON UNIT   1014 AT TIME STEP      1, STRESS PERIOD      1

    CALCULATED INTERCELL FLOW FOR PERIOD 1 STEP 1
(1,1,1): (1,1,2) 4.710057E-03 (1,2,1) -9.729024E-02 (2,1,1) -1.27709
(1,1,2): (1,1,1) -4.710057E-03 (1,1,3) 1.915247E-02 (1,2,2) -0.106594 (2,1,2) -1.27678
(1,1,3): (1,1,2) -1.915247E-02 (1,1,4) 4.706075E-02 (1,2,3) -0.120114 (2,1,3) -1.27676
(1,1,4): (1,1,3) -4.706075E-02 (1,1,5) 8.183237E-02 (1,2,4) -0.126931 (2,1,4) -1.27677
(1,1,5): (1,1,4) -8.183237E-02 (1,1,6) 0.106146 (1,2,5) -0.116501 (2,1,5) -1.27666
(1,1,6): (1,1,5) -0.106146 (1,1,7) 0.111566 (1,2,6) -9.762639E-02 (2,1,6) -1.27655
(1,1,7): (1,1,6) -0.111566 (1,1,8) 9.885526E-02 (1,2,7) -7.958164E-02 (2,1,7) -1.27639
(1,1,8): (1,1,7) -9.885526E-02 (1,1,9) 7.270839E-02 (1,2,8) -6.623745E-02 (2,1,8) -1.27621
(1,1,9): (1,1,8) -7.270839E-02 (1,1,10) 3.838828E-02 (1,2,9) -5.799983E-02 (2,1,9) -1.27612
(1,1,10): (1,1,9) -3.838828E-02 (1,2,10) -5.414852E-02 (2,1,10) -1.27595
(1,2,1): (1,1,1) 9.729024E-02 (1,2,2) -4.593541E-03 (1,3,1) -0.184667 (2,2,1) -1.27697
(1,2,2): (1,1,2) 0.106594 (1,2,1) 4.593541E-03 (1,2,3) 5.632539E-03 (1,3,2) -0.208446 (2,2,2) -1.27670
(1,2,3): (1,1,3) 0.120114 (1,2,2) -5.632539E-03 (1,2,4) 4.024499E-02 (1,3,3) -0.246171 (2,2,3) -1.27686
(1,2,4): (1,1,4) 0.126931 (1,2,3) -4.024499E-02 (1,2,5) 9.226450E-02 (1,3,4) -0.270164 (2,2,4) -1.27698
(1,2,5): (1,1,5) 0.116501 (1,2,4) -9.226450E-02 (1,2,6) 0.125022 (1,3,5) -0.240543 (2,2,5) -1.27666
(1,2,6): (1,1,6) 9.762639E-02 (1,2,5) -0.125022 (1,2,7) 0.129612 (1,3,6) -0.193759 (2,2,6) -1.27631
(1,2,7): (1,1,7) 7.958164E-02 (1,2,6) -0.129612 (1,2,8) 0.112201 (1,3,7) -0.153734 (2,2,7) -1.27607
(1,2,8): (1,1,8) 6.623745E-02 (1,2,7) -0.112201 (1,2,9) 8.094673E-02 (1,3,8) -0.126734 (2,2,8) -1.27577
(1,2,9): (1,1,9) 5.799983E-02 (1,2,8) -8.094673E-02 (1,2,10) 4.223996E-02 (1,3,9) -0.111158 (2,2,9) -1.27555
(1,2,10): (1,1,10) 5.414852E-02 (1,2,9) -4.223996E-02 (1,3,10) -0.104228 (2,2,10) -1.27504
(1,3,1): (1,2,1) 0.184667 (1,3,2) -2.837198E-02 (1,4,1) -0.248117 (2,3,1) -1.27723
(1,3,2): (1,2,2) 0.208446 (1,3,1) 2.837198E-02 (1,3,3) -3.209226E-02 (1,4,2) -0.295863 (2,3,2) -1.27733
(1,3,3): (1,2,3) 0.246171 (1,3,2) 3.209226E-02 (1,3,4) 1.625428E-02 (1,4,3) -0.384659 (2,3,3) -1.27836
(1,3,4): (1,2,4) 0.270164 (1,3,3) -1.625428E-02 (1,3,5) 0.121889 (1,4,4) -0.463288 (2,3,4) -1.28074
(1,3,5): (1,2,5) 0.240543 (1,3,4) -0.121889 (1,3,6) 0.171810 (1,4,5) -0.380470 (2,3,5) -1.27825
(1,3,6): (1,2,6) 0.193759 (1,3,5) -0.171810 (1,3,7) 0.169640 (1,4,6) -0.282567 (2,3,6) -1.27682
(1,3,7): (1,2,7) 0.153734 (1,3,6) -0.169640 (1,3,8) 0.139203 (1,4,7) -0.214871 (2,3,7) -1.27628
(1,3,8): (1,2,8) 0.126734 (1,3,7) -0.139203 (1,3,9) 9.652462E-02 (1,4,8) -0.175747 (2,3,8) -1.27587
(1,3,9): (1,2,9) 0.111158 (1,3,8) -9.652462E-02 (1,3,10) 4.917034E-02 (1,4,9) -0.155727 (2,3,9) -1.27555
(1,3,10): (1,2,10) 0.104228 (1,3,9) -4.917034E-02 (1,4,10) -0.147465 (2,3,10) -1.27503
(1,4,1): (1,3,1) 0.248117 (1,4,2) -7.611847E-02 (1,5,1) -0.263929 (2,4,1) -1.27718
(1,4,2): (1,3,2) 0.295863 (1,4,1) 7.611847E-02 (1,4,3) -0.120889 (1,5,2) -0.341203 (2,4,2) -1.27857
(1,4,3): (1,3,3) 0.384659 (1,4,2) 0.120889 (1,4,4) -6.237185E-02 (1,5,3) -0.524904 (2,4,3) -1.28676
(1,4,4): (1,3,4) 0.463288 (1,4,3) 6.237185E-02 (1,4,5) 0.204714 (1,5,4) -0.784959 (2,4,4) -1.31437
(1,4,5): (1,3,5) 0.380470 (1,4,4) -0.204714 (1,4,6) 0.269720 (1,5,5) -0.526883 (2,4,5) -1.28696
(1,4,6): (1,3,6) 0.282567 (1,4,5) -0.269720 (1,4,7) 0.237342 (1,5,6) -0.340099 (2,4,6) -1.27826
(1,4,7): (1,3,7) 0.214871 (1,4,6) -0.237342 (1,4,8) 0.178330 (1,5,7) -0.247584 (2,4,7) -1.27603
(1,4,8): (1,3,8) 0.175747 (1,4,7) -0.178330 (1,4,9) 0.116546 (1,5,8) -0.206461 (2,4,8) -1.27535
(1,4,9): (1,3,9) 0.155727 (1,4,8) -0.116546 (1,4,10) 5.743389E-02 (1,5,9) -0.189311 (2,4,9) -1.27495
(1,4,10): (1,3,10) 0.147465 (1,4,9) -5.743389E-02 (1,5,10) -0.183281 (2,4,10) -1.27443
(1,5,1): (1,4,1) 0.263929 (1,5,2) -0.153396 (1,6,1) -0.208165 (2,5,1) -1.27156
(1,5,2): (1,4,2) 0.341203 (1,5,1) 0.153396 (1,5,3) -0.304594 (1,6,2) -0.278446 (2,5,2) -1.28007
(1,5,3): (1,4,3) 0.524904 (1,5,2) 0.304594 (1,5,4) -0.322431 (1,6,3) -0.534919 (2,5,3) -1.34133
(1,5,4): (1,4,4) 0.784959 (1,5,3) 0.322431 (1,5,5) 0.462805 (1,6,4) -1.26444 (2,5,4) -1.67688
(1,5,5): (1,4,5) 0.526883 (1,5,4) -0.462805 (1,5,6) 0.456515 (1,6,5) -0.548025 (2,5,5) -1.34227
(1,5,6): (1,4,6) 0.340099 (1,5,5) -0.456515 (1,5,7) 0.329865 (1,6,6) -0.302203 (2,5,6) -1.27964
(1,5,7): (1,4,7) 0.247584 (1,5,6) -0.329865 (1,5,8) 0.219459 (1,6,7) -0.235960 (2,5,7) -1.26940
(1,5,8): (1,4,8) 0.206461 (1,5,7) -0.219459 (1,5,9) 0.133699 (1,6,8) -0.221472 (2,5,8) -1.26702
(1,5,9): (1,4,9) 0.189311 (1,5,8) -0.133699 (1,5,10) 6.346546E-02 (1,6,9) -0.220767 (2,5,9) -1.26622
(1,5,10): (1,4,10) 0.183281 (1,5,9) -6.346546E-02 (1,6,10) -0.222151 (2,5,10) -1.26547
(1,6,1): (1,5,1) 0.208165 (1,6,2) -0.223681 (1,7,1) -0.146004 (2,6,1) -1.20743
(1,6,2): (1,5,2) 0.278446 (1,6,1) 0.223681 (1,6,3) -0.561076 (1,7,2) -6.636211E-02 (2,6,2) -1.24369
(1,6,3): (1,5,3) 0.534919 (1,6,2) 0.561076 (1,6,4) -1.05198 (1,7,3) 0.201172 (2,6,3) -1.61605
(1,6,4): (1,5,4) 1.26444 (1,6,3) 1.05198 (1,6,5) 1.17926 (1,7,4) 0.926905 (2,6,4) -5.79095
(1,6,5): (1,5,5) 0.548025 (1,6,4) -1.17926 (1,6,6) 0.702352 (1,7,5) 0.171162 (2,6,5) -1.61269
(1,6,6): (1,5,6) 0.302203 (1,6,5) -0.702352 (1,6,7) 0.396118 (1,7,6) -0.129590 (2,6,6) -1.23570
(1,6,7): (1,5,7) 0.235960 (1,6,6) -0.396118 (1,6,8) 0.233953 (1,7,7) -0.249687 (2,6,7) -1.19213
(1,6,8): (1,5,8) 0.221472 (1,6,7) -0.233953 (1,6,9) 0.134407 (1,7,8) -0.308194 (2,6,8) -1.18172
(1,6,9): (1,5,9) 0.220767 (1,6,8) -0.134407 (1,6,10) 6.208351E-02 (1,7,9) -0.339386 (2,6,9) -1.17680
(1,6,10): (1,5,10) 0.222151 (1,6,9) -6.208351E-02 (1,7,10) -0.353493 (2,6,10) -1.17427
(1,7,1): (1,6,1) 0.146004 (1,7,2) -0.144045 (1,8,1) -0.828103 (2,7,1) -0.542518
(1,7,2): (1,6,2) 6.636211E-02 (1,7,1) 0.144045 (1,7,3) -0.293558 (1,8,2) -0.697256 (2,7,2) -0.587781
(1,7,3): (1,6,3) -0.201172 (1,7,2) 0.293558 (1,7,4) -0.326275 (1,8,3) -0.426798 (2,7,3) -0.708353
(1,7,4): (1,6,4) -0.926905 (1,7,3) 0.326275 (1,7,5) 0.423545 (1,8,4) -0.118228 (2,7,4) -1.07434
(1,7,5): (1,6,5) -0.171162 (1,7,4) -0.423545 (1,7,6) 0.401620 (1,8,5) -0.510199 (2,7,5) -0.666003
(1,7,6): (1,6,6) 0.129590 (1,7,5) -0.401620 (1,7,7) 0.276032 (1,8,6) -0.873656 (2,7,6) -0.498388
(1,7,7): (1,6,7) 0.249687 (1,7,6) -0.276032 (1,7,8) 0.175452 (1,8,7) -1.11892 (2,7,7) -0.397993
(1,7,8): (1,6,8) 0.308194 (1,7,7) -0.175452 (1,7,9) 0.103219 (1,8,8) -1.27281 (2,7,8) -0.330602
(1,7,9): (1,6,9) 0.339386 (1,7,8) -0.103219 (1,7,10) 4.797815E-02 (1,8,9) -1.36263 (2,7,9) -0.288937
(1,7,10): (1,6,10) 0.353493 (1,7,9) -4.797815E-02 (1,8,10) -1.40421 (2,7,10) -0.268653
(1,8,1): (1,7,1) 0.828103 (1,8,2) -1.320049E-02 (1,9,1) 1.44466 (2,8,1) 6.13489
(1,8,2): (1,7,2) 0.697256 (1,8,1) 1.320049E-02 (1,8,3) -2.310689E-02 (1,9,2) 1.43566 (2,8,2) 5.74454
(1,8,3): (1,7,3) 0.426798 (1,8,2) 2.310689E-02 (1,8,4) -1.771542E-02 (1,9,3) 1.42946 (2,8,3) 5.08329
(1,8,4): (1,7,4) 0.118228 (1,8,3) 1.771542E-02 (1,8,5) 3.158855E-02 (1,9,4) 1.44410 (2,8,4) 4.62589
(1,8,5): (1,7,5) 0.510199 (1,8,4) -3.158855E-02 (1,8,6) 3.817064E-02 (1,9,5) 1.47258 (2,8,5) 5.50956
(1,8,6): (1,7,6) 0.873656 (1,8,5) -3.817064E-02 (1,8,7) 3.076730E-02 (1,9,6) 1.52320 (2,8,6) 6.63287
(1,8,7): (1,7,7) 1.11892 (1,8,6) -3.076730E-02 (1,8,8) 2.155548E-02 (1,9,7) 1.57865 (2,8,7) 7.56157
(1,8,8): (1,7,8) 1.27281 (1,8,7) -2.155548E-02 (1,8,9) 1.339791E-02 (1,9,8) 1.62576 (2,8,8) 8.21925
(1,8,9): (1,7,9) 1.36263 (1,8,8) -1.339791E-02 (1,8,10) 6.401312E-03 (1,9,9) 1.65861 (2,8,9) 8.62973
(1,8,10): (1,7,10) 1.40421 (1,8,9) -6.401312E-03 (1,9,10) 1.67530 (2,8,10) 8.82609
(1,9,1): (1,8,1) -1.44466 (1,9,2) -2.220398E-02 (1,10,1) 0.641655 (2,9,1) -0.544504
(1,9,2): (1,8,2) -1.43566 (1,9,1) 2.220398E-02 (1,9,3) -2.930442E-02 (1,10,2) 0.655370 (2,9,2) -0.582169
(1,9,3): (1,8,3) -1.42946 (1,9,2) 2.930442E-02 (1,9,4) -3.073957E-03 (1,10,3) 0.677511 (2,9,3) -0.643814
(1,9,4): (1,8,4) -1.44410 (1,9,3) 3.073957E-03 (1,9,5) 6.006145E-02 (1,10,4) 0.691907 (2,9,4) -0.680741
(1,9,5): (1,8,5) -1.47258 (1,9,4) -6.006145E-02 (1,9,6) 8.879290E-02 (1,10,5) 0.675057 (2,9,5) -0.600851
(1,9,6): (1,8,6) -1.52320 (1,9,5) -8.879290E-02 (1,9,7) 8.621737E-02 (1,10,6) 0.648695 (2,9,6) -0.492286
(1,9,7): (1,8,7) -1.57865 (1,9,6) -8.621737E-02 (1,9,8) 6.866075E-02 (1,10,7) 0.626796 (2,9,7) -0.399716
(1,9,8): (1,8,8) -1.62576 (1,9,7) -6.866075E-02 (1,9,9) 4.625045E-02 (1,10,8) 0.612487 (2,9,8) -0.333254
(1,9,9): (1,8,9) -1.65861 (1,9,8) -4.625045E-02 (1,9,10) 2.309914E-02 (1,10,9) 0.604516 (2,9,9) -0.291551
(1,9,10): (1,8,10) -1.67530 (1,9,9) -2.309914E-02 (1,10,10) 0.601074 (2,9,10) -0.271394
(1,10,1): (1,9,1) -0.641655 (1,10,2) -8.490135E-03 (1,11,1) 0.485612 (2,10,1) -1.20479
(1,10,2): (1,9,2) -0.655370 (1,10,1) 8.490135E-03 (1,10,3) -7.164067E-03 (1,11,2) 0.493399 (2,10,2) -1.20832
(1,10,3): (1,9,3) -0.677511 (1,10,2) 7.164067E-03 (1,10,4) 1.131937E-02 (1,11,3) 0.504155 (2,10,3) -1.21425
(1,10,4): (1,9,4) -0.691907 (1,10,3) -1.131937E-02 (1,10,5) 4.320839E-02 (1,11,4) 0.508223 (2,10,4) -1.21727
(1,10,5): (1,9,5) -0.675057 (1,10,4) -4.320839E-02 (1,10,6) 6.242602E-02 (1,11,5) 0.496594 (2,10,5) -1.20970
(1,10,6): (1,9,6) -0.648695 (1,10,5) -6.242602E-02 (1,10,7) 6.431482E-02 (1,11,6) 0.476834 (2,10,6) -1.19880
(1,10,7): (1,9,7) -0.626796 (1,10,6) -6.431482E-02 (1,10,8) 5.434961E-02 (1,11,7) 0.457368 (2,10,7) -1.18921
(1,10,8): (1,9,8) -0.612487 (1,10,7) -5.434961E-02 (1,10,9) 3.827728E-02 (1,11,8) 0.442273 (2,10,8) -1.18219
(1,10,9): (1,9,9) -0.604516 (1,10,8) -3.827728E-02 (1,10,10) 1.965669E-02 (1,11,9) 0.432520 (2,10,9) -1.17777
(1,10,10): (1,9,10) -0.601074 (1,10,9) -1.965669E-02 (1,11,10) 0.427821 (2,10,10) -1.17543
(1,11,1): (1,10,1) -0.485612 (1,11,2) -7.036808E-04 (1,12,1) 0.387295 (2,11,1) -1.27042
(1,11,2): (1,10,2) -0.493399 (1,11,1) 7.036808E-04 (1,11,3) 3.591014E-03 (1,12,2) 0.390559 (2,11,2) -1.27063
(1,11,3): (1,10,3) -0.504155 (1,11,2) -3.591014E-03 (1,11,4) 1.538494E-02 (1,12,3) 0.394424 (2,11,3) -1.27116
(1,11,4): (1,10,4) -0.508223 (1,11,3) -1.538494E-02 (1,11,5) 3.157681E-02 (1,12,4) 0.394335 (2,11,4) -1.27137
(1,11,5): (1,10,5) -0.496594 (1,11,4) -3.157681E-02 (1,11,6) 4.266293E-02 (1,12,5) 0.387086 (2,11,5) -1.27054
(1,11,6): (1,10,6) -0.476834 (1,11,5) -4.266293E-02 (1,11,7) 4.484561E-02 (1,12,6) 0.375102 (2,11,6) -1.26932
(1,11,7): (1,10,7) -0.457368 (1,11,6) -4.484561E-02 (1,11,8) 3.925289E-02 (1,12,7) 0.362358 (2,11,7) -1.26819
(1,11,8): (1,10,8) -0.442273 (1,11,7) -3.925289E-02 (1,11,9) 2.852321E-02 (1,12,8) 0.351650 (2,11,8) -1.26732
(1,11,9): (1,10,9) -0.432520 (1,11,8) -2.852321E-02 (1,11,10) 1.495729E-02 (1,12,9) 0.344240 (2,11,9) -1.26677
(1,11,10): (1,10,10) -0.427821 (1,11,9) -1.495729E-02 (1,12,10) 0.340519 (2,11,10) -1.26629
(1,12,1): (1,11,1) -0.387295 (1,12,2) 2.559954E-03 (1,13,1) 0.291596 (2,12,1) -1.27631
(1,12,2): (1,11,2) -0.390559 (1,12,1) -2.559954E-03 (1,12,3) 7.454270E-03 (1,13,2) 0.292750 (2,12,2) -1.27619
(1,12,3): (1,11,3) -0.394424 (1,12,2) -7.454270E-03 (1,12,4) 1.529455E-02 (1,13,3) 0.293691 (2,12,3) -1.27623
(1,12,4): (1,11,4) -0.394335 (1,12,3) -1.529455E-02 (1,12,5) 2.432574E-02 (1,13,4) 0.292454 (2,12,4) -1.27617
(1,12,5): (1,11,5) -0.387086 (1,12,4) -2.432574E-02 (1,12,6) 3.067599E-02 (1,13,5) 0.287806 (2,12,5) -1.27600
(1,12,6): (1,11,6) -0.375102 (1,12,5) -3.067599E-02 (1,12,7) 3.210005E-02 (1,13,6) 0.280611 (2,12,6) -1.27579
(1,12,7): (1,11,7) -0.362358 (1,12,6) -3.210005E-02 (1,12,8) 2.854374E-02 (1,13,7) 0.272717 (2,12,7) -1.27558
(1,12,8): (1,11,8) -0.351650 (1,12,7) -2.854374E-02 (1,12,9) 2.111159E-02 (1,13,8) 0.265751 (2,12,8) -1.27540
(1,12,9): (1,11,9) -0.344240 (1,12,8) -2.111159E-02 (1,12,10) 1.123616E-02 (1,13,9) 0.260740 (2,12,9) -1.27529
(1,12,10): (1,11,10) -0.340519 (1,12,9) -1.123616E-02 (1,13,10) 0.258144 (2,12,10) -1.27503
(1,13,1): (1,12,1) -0.291596 (1,13,2) 3.714135E-03 (1,14,1) 0.194900 (2,13,1) -1.27634
(1,13,2): (1,12,2) -0.292750 (1,13,1) -3.714135E-03 (1,13,3) 8.393734E-03 (1,14,2) 0.195188 (2,13,2) -1.27621
(1,13,3): (1,12,3) -0.293691 (1,13,2) -8.393734E-03 (1,13,4) 1.405643E-02 (1,14,3) 0.195166 (2,13,3) -1.27617
(1,13,4): (1,12,4) -0.292454 (1,13,3) -1.405643E-02 (1,13,5) 1.967564E-02 (1,14,4) 0.193967 (2,13,4) -1.27613
(1,13,5): (1,12,5) -0.287806 (1,13,4) -1.967564E-02 (1,13,6) 2.347931E-02 (1,14,5) 0.191131 (2,13,5) -1.27604
(1,13,6): (1,12,6) -0.280611 (1,13,5) -2.347931E-02 (1,13,7) 2.420499E-02 (1,14,6) 0.187003 (2,13,6) -1.27595
(1,13,7): (1,12,7) -0.272717 (1,13,6) -2.420499E-02 (1,13,8) 2.157641E-02 (1,14,7) 0.182435 (2,13,7) -1.27585
(1,13,8): (1,12,8) -0.265751 (1,13,7) -2.157641E-02 (1,13,9) 1.609988E-02 (1,14,8) 0.178312 (2,13,8) -1.27576
(1,13,9): (1,12,9) -0.260740 (1,13,8) -1.609988E-02 (1,13,10) 8.640104E-03 (1,14,9) 0.175263 (2,13,9) -1.27572
(1,13,10): (1,12,10) -0.258144 (1,13,9) -8.640104E-03 (1,14,10) 0.173667 (2,13,10) -1.27548
(1,14,1): (1,13,1) -0.194900 (1,14,2) 4.002412E-03 (1,15,1) 9.758610E-02 (2,14,1) -1.27601
(1,14,2): (1,13,2) -0.195188 (1,14,1) -4.002412E-03 (1,14,3) 8.370419E-03 (1,15,2) 9.763713E-02 (2,14,2) -1.27580
(1,14,3): (1,13,3) -0.195166 (1,14,2) -8.370419E-03 (1,14,4) 1.285716E-02 (1,15,3) 9.747587E-02 (2,14,3) -1.27578
(1,14,4): (1,13,4) -0.193967 (1,14,3) -1.285716E-02 (1,14,5) 1.683875E-02 (1,15,4) 9.680128E-02 (2,14,4) -1.27575
(1,14,5): (1,13,5) -0.191131 (1,14,4) -1.683875E-02 (1,14,6) 1.934936E-02 (1,15,5) 9.545365E-02 (2,14,5) -1.27569
(1,14,6): (1,13,6) -0.187003 (1,14,5) -1.934936E-02 (1,14,7) 1.963666E-02 (1,15,6) 9.356387E-02 (2,14,6) -1.27562
(1,14,7): (1,13,7) -0.182435 (1,14,6) -1.963666E-02 (1,14,8) 1.745266E-02 (1,15,7) 9.147357E-02 (2,14,7) -1.27555
(1,14,8): (1,13,8) -0.178312 (1,14,7) -1.745266E-02 (1,14,9) 1.305032E-02 (1,15,8) 8.956329E-02 (2,14,8) -1.27549
(1,14,9): (1,13,9) -0.175263 (1,14,8) -1.305032E-02 (1,14,10) 7.044022E-03 (1,15,9) 8.813768E-02 (2,14,9) -1.27546
(1,14,10): (1,13,10) -0.173667 (1,14,9) -7.044022E-03 (1,15,10) 8.738890E-02 (2,14,10) -1.27524
(1,15,1): (1,14,1) -9.758610E-02 (1,15,2) 4.053300E-03 (2,15,1) -1.27573
(1,15,2): (1,14,2) -9.763713E-02 (1,15,1) -4.053300E-03 (1,15,3) 8.208845E-03 (2,15,2) -1.27548
(1,15,3): (1,14,3) -9.747587E-02 (1,15,2) -8.208845E-03 (1,15,4) 1.218212E-02 (2,15,3) -1.27544
(1,15,4): (1,14,4) -9.680128E-02 (1,15,3) -1.218212E-02 (1,15,5) 1.549060E-02 (2,15,4) -1.27540
(1,15,5): (1,14,5) -9.545365E-02 (1,15,4) -1.549060E-02 (1,15,6) 1.745906E-02 (2,15,5) -1.27532
(1,15,6): (1,14,6) -9.356387E-02 (1,15,5) -1.745906E-02 (1,15,7) 1.754589E-02 (2,15,6) -1.27524
(1,15,7): (1,14,7) -9.147357E-02 (1,15,6) -1.754589E-02 (1,15,8) 1.554201E-02 (2,15,7) -1.27517
(1,15,8): (1,14,8) -8.956329E-02 (1,15,7) -1.554201E-02 (1,15,9) 1.162447E-02 (2,15,8) -1.27511
(1,15,9): (1,14,9) -8.813768E-02 (1,15,8) -1.162447E-02 (1,15,10) 6.295170E-03 (2,15,9) -1.27509
(1,15,10): (1,14,10) -8.738890E-02 (1,15,9) -6.295170E-03 (2,15,10) -1.27483
(2,1,1): (1,1,1) 1.27709 (2,1,2) 9.298635E-05 (2,2,1) -1.913038E-03 (3,1,1) -1.27384
(2,1,2): (1,1,2) 1.27678 (2,1,1) -9.298635E-05 (2,1,3) 3.764728E-04 (2,2,2) -2.096035E-03 (3,1,2) -1.27355
(2,1,3): (1,1,3) 1.27676 (2,1,2) -3.764728E-04 (2,1,4) 9.247374E-04 (2,2,3) -2.361908E-03 (3,1,3) -1.27340
(2,1,4): (1,1,4) 1.27677 (2,1,3) -9.247374E-04 (2,1,5) 1.607346E-03 (2,2,4) -2.495228E-03 (3,1,4) -1.27320
(2,1,5): (1,1,5) 1.27666 (2,1,4) -1.607346E-03 (2,1,6) 2.083330E-03 (2,2,5) -2.288386E-03 (3,1,5) -1.27299
(2,1,6): (1,1,6) 1.27655 (2,1,5) -2.083330E-03 (2,1,7) 2.187906E-03 (2,2,6) -1.915601E-03 (3,1,6) -1.27269
(2,1,7): (1,1,7) 1.27639 (2,1,6) -2.187906E-03 (2,1,8) 1.937094E-03 (2,2,7) -1.559909E-03 (3,1,7) -1.27242
(2,1,8): (1,1,8) 1.27621 (2,1,7) -1.937094E-03 (2,1,9) 1.423745E-03 (2,2,8) -1.297042E-03 (3,1,8) -1.27216
(2,1,9): (1,1,9) 1.27612 (2,1,8) -1.423745E-03 (2,1,10) 7.515365E-04 (2,2,9) -1.134821E-03 (3,1,9) -1.27195
(2,1,10): (1,1,10) 1.27595 (2,1,9) -7.515365E-04 (2,2,10) -1.058651E-03 (3,1,10) -1.27282
(2,2,1): (1,2,1) 1.27697 (2,1,1) 1.913038E-03 (2,2,2) -9.001088E-05 (2,3,1) -3.635723E-03 (3,2,1) -1.27388
(2,2,2): (1,2,2) 1.27670 (2,1,2) 2.096035E-03 (2,2,1) 9.001088E-05 (2,2,3) 1.106005E-04 (2,3,2) -4.104837E-03 (3,2,2) -1.27364
(2,2,3): (1,2,3) 1.27686 (2,1,3) 2.361908E-03 (2,2,2) -1.106005E-04 (2,2,4) 7.914171E-04 (2,3,3) -4.849226E-03 (3,2,3) -1.27354
(2,2,4): (1,2,4) 1.27698 (2,1,4) 2.495228E-03 (2,2,3) -7.914171E-04 (2,2,5) 1.814188E-03 (2,3,4) -5.323392E-03 (3,2,4) -1.27370
(2,2,5): (1,2,5) 1.27666 (2,1,5) 2.288386E-03 (2,2,4) -1.814188E-03 (2,2,6) 2.456115E-03 (2,3,5) -4.733457E-03 (3,2,5) -1.27295
(2,2,6): (1,2,6) 1.27631 (2,1,6) 1.915601E-03 (2,2,5) -2.456115E-03 (2,2,7) 2.543598E-03 (2,3,6) -3.807412E-03 (3,2,6) -1.27271
(2,2,7): (1,2,7) 1.27607 (2,1,7) 1.559909E-03 (2,2,6) -2.543598E-03 (2,2,8) 2.199961E-03 (2,3,7) -3.017135E-03 (3,2,7) -1.27218
(2,2,8): (1,2,8) 1.27577 (2,1,8) 1.297042E-03 (2,2,7) -2.199961E-03 (2,2,9) 1.585967E-03 (2,3,8) -2.484727E-03 (3,2,8) -1.27181
(2,2,9): (1,2,9) 1.27555 (2,1,9) 1.134821E-03 (2,2,8) -1.585967E-03 (2,2,10) 8.277057E-04 (2,3,9) -2.177721E-03 (3,2,9) -1.27152
(2,2,10): (1,2,10) 1.27504 (2,1,10) 1.058651E-03 (2,2,9) -8.277057E-04 (2,3,10) -2.041225E-03 (3,2,10) -1.27210
(2,3,1): (1,3,1) 1.27723 (2,2,1) 3.635723E-03 (2,3,2) -5.591248E-04 (2,4,1) -4.892576E-03 (3,3,1) -1.27428
(2,3,2): (1,3,2) 1.27733 (2,2,2) 4.104837E-03 (2,3,1) 5.591248E-04 (2,3,3) -6.337882E-04 (2,4,2) -5.838119E-03 (3,3,2) -1.27418
(2,3,3): (1,3,3) 1.27836 (2,2,3) 4.849226E-03 (2,3,2) 6.337882E-04 (2,3,4) 3.172516E-04 (2,4,3) -7.603621E-03 (3,3,3) -1.27546
(2,3,4): (1,3,4) 1.28074 (2,2,4) 5.323392E-03 (2,3,3) -3.172516E-04 (2,3,5) 2.404122E-03 (2,4,4) -9.190038E-03 (3,3,4) -1.27748
(2,3,5): (1,3,5) 1.27825 (2,2,5) 4.733457E-03 (2,3,4) -2.404122E-03 (2,3,6) 3.382160E-03 (2,4,5) -7.513010E-03 (3,3,5) -1.27492
(2,3,6): (1,3,6) 1.27682 (2,2,6) 3.807412E-03 (2,3,5) -3.382160E-03 (2,3,7) 3.333875E-03 (2,4,6) -5.563607E-03 (3,3,6) -1.27307
(2,3,7): (1,3,7) 1.27628 (2,2,7) 3.017135E-03 (2,3,6) -3.333875E-03 (2,3,8) 2.732368E-03 (2,4,7) -4.222246E-03 (3,3,7) -1.27267
(2,3,8): (1,3,8) 1.27587 (2,2,8) 2.484727E-03 (2,3,7) -2.732368E-03 (2,3,9) 1.892973E-03 (2,4,8) -3.448780E-03 (3,3,8) -1.27206
(2,3,9): (1,3,9) 1.27555 (2,2,9) 2.177721E-03 (2,3,8) -1.892973E-03 (2,3,10) 9.642021E-04 (2,4,9) -3.053229E-03 (3,3,9) -1.27176
(2,3,10): (1,3,10) 1.27503 (2,2,10) 2.041225E-03 (2,3,9) -9.642021E-04 (2,4,10) -2.889986E-03 (3,3,10) -1.27215
(2,4,1): (1,4,1) 1.27718 (2,3,1) 4.892576E-03 (2,4,2) -1.504668E-03 (2,5,1) -5.207421E-03 (3,4,1) -1.27406
(2,4,2): (1,4,2) 1.27857 (2,3,2) 5.838119E-03 (2,4,1) 1.504668E-03 (2,4,3) -2.399290E-03 (2,5,2) -6.749527E-03 (3,4,2) -1.27592
(2,4,3): (1,4,3) 1.28676 (2,3,3) 7.603621E-03 (2,4,2) 2.399290E-03 (2,4,4) -1.269165E-03 (2,5,3) -1.046868E-02 (3,4,3) -1.28414
(2,4,4): (1,4,4) 1.31437 (2,3,4) 9.190038E-03 (2,4,3) 1.269165E-03 (2,4,5) 4.081149E-03 (2,5,4) -1.604396E-02 (3,4,4) -1.31270
(2,4,5): (1,4,5) 1.28696 (2,3,5) 7.513010E-03 (2,4,4) -4.081149E-03 (2,4,6) 5.331563E-03 (2,5,5) -1.049712E-02 (3,4,5) -1.28379
(2,4,6): (1,4,6) 1.27826 (2,3,6) 5.563607E-03 (2,4,5) -5.331563E-03 (2,4,7) 4.675236E-03 (2,5,6) -6.712042E-03 (3,4,6) -1.27492
(2,4,7): (1,4,7) 1.27603 (2,3,7) 4.222246E-03 (2,4,6) -4.675236E-03 (2,4,8) 3.505835E-03 (2,5,7) -4.865469E-03 (3,4,7) -1.27230
(2,4,8): (1,4,8) 1.27535 (2,3,8) 3.448780E-03 (2,4,7) -3.505835E-03 (2,4,9) 2.288524E-03 (2,5,8) -4.047389E-03 (3,4,8) -1.27180
(2,4,9): (1,4,9) 1.27495 (2,3,9) 3.053229E-03 (2,4,8) -2.288524E-03 (2,4,10) 1.127445E-03 (2,5,9) -3.706163E-03 (3,4,9) -1.27126
(2,4,10): (1,4,10) 1.27443 (2,3,10) 2.889986E-03 (2,4,9) -1.127445E-03 (2,5,10) -3.585771E-03 (3,4,10) -1.27164
(2,5,1): (1,5,1) 1.27156 (2,4,1) 5.207421E-03 (2,5,2) -3.046774E-03 (2,6,1) -4.037076E-03 (3,5,1) -1.26884
(2,5,2): (1,5,2) 1.28007 (2,4,2) 6.749527E-03 (2,5,1) 3.046774E-03 (2,5,3) -6.118442E-03 (2,6,2) -5.472473E-03 (3,5,2) -1.27750
(2,5,3): (1,5,3) 1.34133 (2,4,3) 1.046868E-02 (2,5,2) 6.118442E-03 (2,5,4) -6.844441E-03 (2,6,3) -1.099738E-02 (3,5,3) -1.34104
(2,5,4): (1,5,4) 1.67688 (2,4,4) 1.604396E-02 (2,5,3) 6.844441E-03 (2,5,5) 9.627981E-03 (2,6,4) -3.063826E-02 (3,5,4) -1.67670
(2,5,5): (1,5,5) 1.34227 (2,4,5) 1.049712E-02 (2,5,4) -9.627981E-03 (2,5,6) 9.116645E-03 (2,6,5) -1.124080E-02 (3,5,5) -1.34086
(2,5,6): (1,5,6) 1.27964 (2,4,6) 6.712042E-03 (2,5,5) -9.116645E-03 (2,5,7) 6.521808E-03 (2,6,6) -5.920281E-03 (3,5,6) -1.27635
(2,5,7): (1,5,7) 1.26940 (2,4,7) 4.865469E-03 (2,5,6) -6.521808E-03 (2,5,8) 4.323915E-03 (2,6,7) -4.553443E-03 (3,5,7) -1.26606
(2,5,8): (1,5,8) 1.26702 (2,4,8) 4.047389E-03 (2,5,7) -4.323915E-03 (2,5,9) 2.629750E-03 (2,6,8) -4.249546E-03 (3,5,8) -1.26338
(2,5,9): (1,5,9) 1.26622 (2,4,9) 3.706163E-03 (2,5,8) -2.629750E-03 (2,5,10) 1.247836E-03 (2,6,9) -4.225767E-03 (3,5,9) -1.26260
(2,5,10): (1,5,10) 1.26547 (2,4,10) 3.585771E-03 (2,5,9) -1.247836E-03 (2,6,10) -4.248535E-03 (3,5,10) -1.26265
(2,6,1): (1,6,1) 1.20743 (2,5,1) 4.037076E-03 (2,6,2) -4.482171E-03 (2,7,1) -2.029572E-03 (3,6,1) -1.20375
(2,6,2): (1,6,2) 1.24369 (2,5,2) 5.472473E-03 (2,6,1) 4.482171E-03 (2,6,3) -1.164335E-02 (2,7,2) -4.645921E-04 (3,6,2) -1.24136
(2,6,3): (1,6,3) 1.61605 (2,5,3) 1.099738E-02 (2,6,2) 1.164335E-02 (2,6,4) -2.648532E-02 (2,7,3) 5.186751E-03 (3,6,3) -1.61538
(2,6,4): (1,6,4) 5.79095 (2,5,4) 3.063826E-02 (2,6,3) 2.648532E-02 (2,6,5) 2.902544E-02 (2,7,4) 2.469476E-02 (3,6,4) -5.90241
(2,6,5): (1,6,5) 1.61269 (2,5,5) 1.124080E-02 (2,6,4) -2.902544E-02 (2,6,6) 1.443716E-02 (2,7,5) 4.636642E-03 (3,6,5) -1.61293
(2,6,6): (1,6,6) 1.23570 (2,5,6) 5.920281E-03 (2,6,5) -1.443716E-02 (2,6,7) 7.888646E-03 (2,7,6) -1.608978E-03 (3,6,6) -1.23213
(2,6,7): (1,6,7) 1.19213 (2,5,7) 4.553443E-03 (2,6,6) -7.888646E-03 (2,6,8) 4.627812E-03 (2,7,7) -3.901478E-03 (3,6,7) -1.18778
(2,6,8): (1,6,8) 1.18172 (2,5,8) 4.249546E-03 (2,6,7) -4.627812E-03 (2,6,9) 2.653529E-03 (2,7,8) -4.973770E-03 (3,6,8) -1.17736
(2,6,9): (1,6,9) 1.17680 (2,5,9) 4.225767E-03 (2,6,8) -2.653529E-03 (2,6,10) 1.225069E-03 (2,7,9) -5.535177E-03 (3,6,9) -1.17234
(2,6,10): (1,6,10) 1.17427 (2,5,10) 4.248535E-03 (2,6,9) -1.225069E-03 (2,7,10) -5.787154E-03 (3,6,10) -1.17054
(2,7,1): (1,7,1) 0.542518 (2,6,1) 2.029572E-03 (2,7,2) -2.917191E-03 (2,8,1) -7.795887E-03 (3,7,1) -0.533368
(2,7,2): (1,7,2) 0.587781 (2,6,2) 4.645921E-04 (2,7,1) 2.917191E-03 (2,7,3) -5.992009E-03 (2,8,2) -5.649658E-03 (3,7,2) -0.579257
(2,7,3): (1,7,3) 0.708353 (2,6,3) -5.186751E-03 (2,7,2) 5.992009E-03 (2,7,4) -6.977308E-03 (2,8,3) -9.786158E-04 (3,7,3) -0.701421
(2,7,4): (1,7,4) 1.07434 (2,6,4) -2.469476E-02 (2,7,3) 6.977308E-03 (2,7,5) 8.967320E-03 (2,8,4) 5.050331E-03 (3,7,4) -1.07027
(2,7,5): (1,7,5) 0.666003 (2,6,5) -4.636642E-03 (2,7,4) -8.967320E-03 (2,7,6) 8.191545E-03 (2,8,5) -2.137481E-03 (3,7,5) -0.657905
(2,7,6): (1,7,6) 0.498388 (2,6,6) 1.608978E-03 (2,7,5) -8.191545E-03 (2,7,7) 5.596146E-03 (2,8,6) -8.106770E-03 (3,7,6) -0.488590
(2,7,7): (1,7,7) 0.397993 (2,6,7) 3.901478E-03 (2,7,6) -5.596146E-03 (2,7,8) 3.555520E-03 (2,8,7) -1.188161E-02 (3,7,7) -0.387376
(2,7,8): (1,7,8) 0.330602 (2,6,8) 4.973770E-03 (2,7,7) -3.555520E-03 (2,7,9) 2.092122E-03 (2,8,8) -1.415207E-02 (3,7,8) -0.319368
(2,7,9): (1,7,9) 0.288937 (2,6,9) 5.535177E-03 (2,7,8) -2.092122E-03 (2,7,10) 9.730914E-04 (2,8,9) -1.544330E-02 (3,7,9) -0.277298
(2,7,10): (1,7,10) 0.268653 (2,6,10) 5.787154E-03 (2,7,9) -9.730914E-04 (2,8,10) -1.603343E-02 (3,7,10) -0.257711
(2,8,1): (1,8,1) -6.13489 (2,7,1) 7.795887E-03 (2,8,2) -7.709616E-04 (2,9,1) 1.999137E-02 (3,8,1) 6.10790
(2,8,2): (1,8,2) -5.74454 (2,7,2) 5.649658E-03 (2,8,1) 7.709616E-04 (2,8,3) -1.320967E-03 (2,9,2) 2.027511E-02 (3,8,2) 5.71925
(2,8,3): (1,8,3) -5.08329 (2,7,3) 9.786158E-04 (2,8,2) 1.320967E-03 (2,8,4) -9.483616E-04 (2,9,3) 2.093742E-02 (3,8,3) 5.06100
(2,8,4): (1,8,4) -4.62589 (2,7,4) -5.050331E-03 (2,8,3) 9.483616E-04 (2,8,5) 1.779509E-03 (2,9,4) 2.177708E-02 (3,8,4) 4.60645
(2,8,5): (1,8,5) -5.50956 (2,7,5) 2.137481E-03 (2,8,4) -1.779509E-03 (2,8,6) 2.222256E-03 (2,9,5) 2.128702E-02 (3,8,5) 5.48573
(2,8,6): (1,8,6) -6.63287 (2,7,6) 8.106770E-03 (2,8,5) -2.222256E-03 (2,8,7) 1.821303E-03 (2,9,6) 2.095762E-02 (3,8,6) 6.60426
(2,8,7): (1,8,7) -7.56157 (2,7,7) 1.188161E-02 (2,8,6) -1.821303E-03 (2,8,8) 1.285059E-03 (2,9,7) 2.095641E-02 (3,8,7) 7.52933
(2,8,8): (1,8,8) -8.21925 (2,7,8) 1.415207E-02 (2,8,7) -1.285059E-03 (2,8,9) 8.008996E-04 (2,9,8) 2.111055E-02 (3,8,8) 8.18455
(2,8,9): (1,8,9) -8.62973 (2,7,9) 1.544330E-02 (2,8,8) -8.008996E-04 (2,8,10) 3.829622E-04 (2,9,9) 2.127471E-02 (3,8,9) 8.59352
(2,8,10): (1,8,10) -8.82609 (2,7,10) 1.603343E-02 (2,8,9) -3.829622E-04 (2,9,10) 2.137275E-02 (3,8,10) 8.78927
(2,9,1): (1,9,1) 0.544504 (2,8,1) -1.999137E-02 (2,9,2) -4.872226E-04 (2,10,1) 1.177400E-02 (3,9,1) -0.535118
(2,9,2): (1,9,2) 0.582169 (2,8,2) -2.027511E-02 (2,9,1) 4.872226E-04 (2,9,3) -6.586571E-04 (2,10,2) 1.208991E-02 (3,9,2) -0.573375
(2,9,3): (1,9,3) 0.643814 (2,8,3) -2.093742E-02 (2,9,2) 6.586571E-04 (2,9,4) -1.086985E-04 (2,10,3) 1.260015E-02 (3,9,3) -0.635500
(2,9,4): (1,9,4) 0.680741 (2,8,4) -2.177708E-02 (2,9,3) 1.086985E-04 (2,9,5) 1.289453E-03 (2,10,4) 1.292722E-02 (3,9,4) -0.672674
(2,9,5): (1,9,5) 0.600851 (2,8,5) -2.128702E-02 (2,9,4) -1.289453E-03 (2,9,6) 1.892856E-03 (2,10,5) 1.249603E-02 (3,9,5) -0.591907
(2,9,6): (1,9,6) 0.492286 (2,8,6) -2.095762E-02 (2,9,5) -1.892856E-03 (2,9,7) 1.820087E-03 (2,10,6) 1.184259E-02 (3,9,6) -0.482193
(2,9,7): (1,9,7) 0.399716 (2,8,7) -2.095641E-02 (2,9,6) -1.820087E-03 (2,9,8) 1.439202E-03 (2,10,7) 1.129669E-02 (3,9,7) -0.388670
(2,9,8): (1,9,8) 0.333254 (2,8,8) -2.111055E-02 (2,9,7) -1.439202E-03 (2,9,9) 9.650636E-04 (2,10,8) 1.093232E-02 (3,9,8) -0.321514
(2,9,9): (1,9,9) 0.291551 (2,8,9) -2.127471E-02 (2,9,8) -9.650636E-04 (2,9,10) 4.809923E-04 (2,10,9) 1.072329E-02 (3,9,9) -0.279341
(2,9,10): (1,9,10) 0.271394 (2,8,10) -2.137275E-02 (2,9,9) -4.809923E-04 (2,10,10) 1.063056E-02 (3,9,10) -0.259450
(2,10,1): (1,10,1) 1.20479 (2,9,1) -1.177400E-02 (2,10,2) -1.713153E-04 (2,11,1) 9.433488E-03 (3,10,1) -1.20169
(2,10,2): (1,10,2) 1.20832 (2,9,2) -1.208991E-02 (2,10,1) 1.713153E-04 (2,10,3) -1.484131E-04 (2,11,2) 9.590760E-03 (3,10,2) -1.20519
(2,10,3): (1,10,3) 1.21425 (2,9,3) -1.260015E-02 (2,10,2) 1.484131E-04 (2,10,4) 2.183760E-04 (2,11,3) 9.808748E-03 (3,10,3) -1.21116
(2,10,4): (1,10,4) 1.21727 (2,9,4) -1.292722E-02 (2,10,3) -2.183760E-04 (2,10,5) 8.582600E-04 (2,11,4) 9.891074E-03 (3,10,4) -1.21411
(2,10,5): (1,10,5) 1.20970 (2,9,5) -1.249603E-02 (2,10,4) -8.582600E-04 (2,10,6) 1.239417E-03 (2,11,5) 9.651529E-03 (3,10,5) -1.20638
(2,10,6): (1,10,6) 1.19880 (2,9,6) -1.184259E-02 (2,10,5) -1.239417E-03 (2,10,7) 1.274181E-03 (2,11,6) 9.247930E-03 (3,10,6) -1.19532
(2,10,7): (1,10,7) 1.18921 (2,9,7) -1.129669E-02 (2,10,6) -1.274181E-03 (2,10,8) 1.074838E-03 (2,11,7) 8.851835E-03 (3,10,7) -1.18552
(2,10,8): (1,10,8) 1.18219 (2,9,8) -1.093232E-02 (2,10,7) -1.074838E-03 (2,10,9) 7.560362E-04 (2,11,8) 8.545174E-03 (3,10,8) -1.17839
(2,10,9): (1,10,9) 1.17777 (2,9,9) -1.072329E-02 (2,10,8) -7.560362E-04 (2,10,10) 3.882615E-04 (2,11,9) 8.347084E-03 (3,10,9) -1.17385
(2,10,10): (1,10,10) 1.17543 (2,9,10) -1.063056E-02 (2,10,9) -3.882615E-04 (2,11,10) 8.251597E-03 (3,10,10) -1.17208
(2,11,1): (1,11,1) 1.27042 (2,10,1) -9.433488E-03 (2,11,2) -1.404341E-05 (2,12,1) 7.558605E-03 (3,11,1) -1.26789
(2,11,2): (1,11,2) 1.27063 (2,10,2) -9.590760E-03 (2,11,1) 1.404341E-05 (2,11,3) 6.957466E-05 (2,12,2) 7.622742E-03 (3,11,2) -1.26818
(2,11,3): (1,11,3) 1.27116 (2,10,3) -9.808748E-03 (2,11,2) -6.957466E-05 (2,11,4) 3.007025E-04 (2,12,3) 7.698523E-03 (3,11,3) -1.26859
(2,11,4): (1,11,4) 1.27137 (2,10,4) -9.891074E-03 (2,11,3) -3.007025E-04 (2,11,5) 6.187150E-04 (2,12,4) 7.696215E-03 (3,11,4) -1.26873
(2,11,5): (1,11,5) 1.27054 (2,10,5) -9.651529E-03 (2,11,4) -6.187150E-04 (2,11,6) 8.358180E-04 (2,12,5) 7.552102E-03 (3,11,5) -1.26782
(2,11,6): (1,11,6) 1.26932 (2,10,6) -9.247930E-03 (2,11,5) -8.358180E-04 (2,11,7) 8.780856E-04 (2,12,6) 7.314663E-03 (3,11,6) -1.26652
(2,11,7): (1,11,7) 1.26819 (2,10,7) -8.851835E-03 (2,11,6) -8.780856E-04 (2,11,8) 7.681767E-04 (2,12,7) 7.062566E-03 (3,11,7) -1.26535
(2,11,8): (1,11,8) 1.26732 (2,10,8) -8.545174E-03 (2,11,7) -7.681767E-04 (2,11,9) 5.579468E-04 (2,12,8) 6.850872E-03 (3,11,8) -1.26441
(2,11,9): (1,11,9) 1.26677 (2,10,9) -8.347084E-03 (2,11,8) -5.579468E-04 (2,11,10) 2.927740E-04 (2,12,9) 6.704414E-03 (3,11,9) -1.26382
(2,11,10): (1,11,10) 1.26629 (2,10,10) -8.251597E-03 (2,11,9) -2.927740E-04 (2,12,10) 6.630878E-03 (3,11,10) -1.26380
(2,12,1): (1,12,1) 1.27631 (2,11,1) -7.558605E-03 (2,12,2) 5.009413E-05 (2,13,1) 5.681914E-03 (3,12,1) -1.27391
(2,12,2): (1,12,2) 1.27619 (2,11,2) -7.622742E-03 (2,12,1) -5.009413E-05 (2,12,3) 1.453557E-04 (2,13,2) 5.704276E-03 (3,12,2) -1.27373
(2,12,3): (1,12,3) 1.27623 (2,11,3) -7.698523E-03 (2,12,2) -1.453557E-04 (2,12,4) 2.983940E-04 (2,13,3) 5.722339E-03 (3,12,3) -1.27373
(2,12,4): (1,12,4) 1.27617 (2,11,4) -7.696215E-03 (2,12,3) -2.983940E-04 (2,12,5) 4.746018E-04 (2,13,4) 5.697560E-03 (3,12,4) -1.27358
(2,12,5): (1,12,5) 1.27600 (2,11,5) -7.552102E-03 (2,12,4) -4.746018E-04 (2,12,6) 5.983795E-04 (2,13,5) 5.605934E-03 (3,12,5) -1.27334
(2,12,6): (1,12,6) 1.27579 (2,11,6) -7.314663E-03 (2,12,5) -5.983795E-04 (2,12,7) 6.259882E-04 (2,13,6) 5.464468E-03 (3,12,6) -1.27306
(2,12,7): (1,12,7) 1.27558 (2,11,7) -7.062566E-03 (2,12,6) -6.259882E-04 (2,12,8) 5.564830E-04 (2,13,7) 5.309434E-03 (3,12,7) -1.27277
(2,12,8): (1,12,8) 1.27540 (2,11,8) -6.850872E-03 (2,12,7) -5.564830E-04 (2,12,9) 4.114889E-04 (2,13,8) 5.172690E-03 (3,12,8) -1.27259
(2,12,9): (1,12,9) 1.27529 (2,11,9) -6.704414E-03 (2,12,8) -4.114889E-04 (2,12,10) 2.192381E-04 (2,13,9) 5.074314E-03 (3,12,9) -1.27240
(2,12,10): (1,12,10) 1.27503 (2,11,10) -6.630878E-03 (2,12,9) -2.192381E-04 (2,13,10) 5.023389E-03 (3,12,10) -1.27262
(2,13,1): (1,13,1) 1.27634 (2,12,1) -5.681914E-03 (2,13,2) 7.245546E-05 (2,14,1) 3.791184E-03 (3,13,1) -1.27381
(2,13,2): (1,13,2) 1.27621 (2,12,2) -5.704276E-03 (2,13,1) -7.245546E-05 (2,13,3) 1.634194E-04 (2,14,2) 3.796783E-03 (3,13,2) -1.27372
(2,13,3): (1,13,3) 1.27617 (2,12,3) -5.722339E-03 (2,13,2) -1.634194E-04 (2,13,4) 2.736145E-04 (2,14,3) 3.796066E-03 (3,13,3) -1.27363
(2,13,4): (1,13,4) 1.27613 (2,12,4) -5.697560E-03 (2,13,3) -2.736145E-04 (2,13,5) 3.829755E-04 (2,14,4) 3.772334E-03 (3,13,4) -1.27351
(2,13,5): (1,13,5) 1.27604 (2,12,5) -5.605934E-03 (2,13,4) -3.829755E-04 (2,13,6) 4.569143E-04 (2,14,5) 3.716620E-03 (3,13,5) -1.27334
(2,13,6): (1,13,6) 1.27595 (2,12,6) -5.464468E-03 (2,13,5) -4.569143E-04 (2,13,7) 4.709538E-04 (2,14,6) 3.635704E-03 (3,13,6) -1.27318
(2,13,7): (1,13,7) 1.27585 (2,12,7) -5.309434E-03 (2,13,6) -4.709538E-04 (2,13,8) 4.197388E-04 (2,14,7) 3.546267E-03 (3,13,7) -1.27304
(2,13,8): (1,13,8) 1.27576 (2,12,8) -5.172690E-03 (2,13,7) -4.197388E-04 (2,13,9) 3.131133E-04 (2,14,8) 3.465564E-03 (3,13,8) -1.27289
(2,13,9): (1,13,9) 1.27572 (2,12,9) -5.074314E-03 (2,13,8) -3.131133E-04 (2,13,10) 1.683126E-04 (2,14,9) 3.405922E-03 (3,13,9) -1.27283
(2,13,10): (1,13,10) 1.27548 (2,12,10) -5.023389E-03 (2,13,9) -1.683126E-04 (2,14,10) 3.374675E-03 (3,13,10) -1.27305
(2,14,1): (1,14,1) 1.27601 (2,13,1) -3.791184E-03 (2,14,2) 7.805494E-05 (2,15,1) 1.896290E-03 (3,14,1) -1.27345
(2,14,2): (1,14,2) 1.27580 (2,13,2) -3.796783E-03 (2,14,1) -7.805494E-05 (2,14,3) 1.627019E-04 (2,15,2) 1.897276E-03 (3,14,2) -1.27326
(2,14,3): (1,14,3) 1.27578 (2,13,3) -3.796066E-03 (2,14,2) -1.627019E-04 (2,14,4) 2.498826E-04 (2,15,3) 1.894039E-03 (3,14,3) -1.27320
(2,14,4): (1,14,4) 1.27575 (2,13,4) -3.772334E-03 (2,14,3) -2.498826E-04 (2,14,5) 3.272618E-04 (2,15,4) 1.880761E-03 (3,14,4) -1.27309
(2,14,5): (1,14,5) 1.27569 (2,13,5) -3.716620E-03 (2,14,4) -3.272618E-04 (2,14,6) 3.759975E-04 (2,15,5) 1.854366E-03 (3,14,5) -1.27294
(2,14,6): (1,14,6) 1.27562 (2,13,6) -3.635704E-03 (2,14,5) -3.759975E-04 (2,14,7) 3.815177E-04 (2,15,6) 1.817420E-03 (3,14,6) -1.27281
(2,14,7): (1,14,7) 1.27555 (2,13,7) -3.546267E-03 (2,14,6) -3.815177E-04 (2,14,8) 3.390350E-04 (2,15,7) 1.776574E-03 (3,14,7) -1.27268
(2,14,8): (1,14,8) 1.27549 (2,13,8) -3.465564E-03 (2,14,7) -3.390350E-04 (2,14,9) 2.534715E-04 (2,15,8) 1.739263E-03 (3,14,8) -1.27260
(2,14,9): (1,14,9) 1.27546 (2,13,9) -3.405922E-03 (2,14,8) -2.534715E-04 (2,14,10) 1.370657E-04 (2,15,9) 1.711411E-03 (3,14,9) -1.27252
(2,14,10): (1,14,10) 1.27524 (2,13,10) -3.374675E-03 (2,14,9) -1.370657E-04 (2,15,10) 1.696839E-03 (3,14,10) -1.27278
(2,15,1): (1,15,1) 1.27573 (2,14,1) -1.896290E-03 (2,15,2) 7.904091E-05 (3,15,1) -1.27350
(2,15,2): (1,15,2) 1.27548 (2,14,2) -1.897276E-03 (2,15,1) -7.904091E-05 (2,15,3) 1.594647E-04 (3,15,2) -1.27326
(2,15,3): (1,15,3) 1.27544 (2,14,3) -1.894039E-03 (2,15,2) -1.594647E-04 (2,15,4) 2.366051E-04 (3,15,3) -1.27318
(2,15,4): (1,15,4) 1.27540 (2,14,4) -1.880761E-03 (2,15,3) -2.366051E-04 (2,15,5) 3.008666E-04 (3,15,4) -1.27309
(2,15,5): (1,15,5) 1.27532 (2,14,5) -1.854366E-03 (2,15,4) -3.008666E-04 (2,15,6) 3.390509E-04 (3,15,5) -1.27297
(2,15,6): (1,15,6) 1.27524 (2,14,6) -1.817420E-03 (2,15,5) -3.390509E-04 (2,15,7) 3.406726E-04 (3,15,6) -1.27286
(2,15,7): (1,15,7) 1.27517 (2,14,7) -1.776574E-03 (2,15,6) -3.406726E-04 (2,15,8) 3.017240E-04 (3,15,7) -1.27276
(2,15,8): (1,15,8) 1.27511 (2,14,8) -1.739263E-03 (2,15,7) -3.017240E-04 (2,15,9) 2.256192E-04 (3,15,8) -1.27269
(2,15,9): (1,15,9) 1.27509 (2,14,9) -1.711411E-03 (2,15,8) -2.256192E-04 (2,15,10) 1.224935E-04 (3,15,9) -1.27262
(2,15,10): (1,15,10) 1.27483 (2,14,10) -1.696839E-03 (2,15,9) -1.224935E-04 (3,15,10) -1.27299
(3,1,1): (2,1,1) 1.27384 (3,1,2) 6.535754E-02 (3,2,1) -1.33917
(3,1,2): (2,1,2) 1.27355 (3,1,1) -6.535754E-02 (3,1,3) 0.263670 (3,2,2) -1.46731
(3,1,3): (2,1,3) 1.27340 (3,1,2) -0.263670 (3,1,4) 0.647503 (3,2,3) -1.65346
(3,1,4): (2,1,4) 1.27320 (3,1,3) -0.647503 (3,1,5) 1.12534 (3,2,4) -1.74713
(3,1,5): (2,1,5) 1.27299 (3,1,4) -1.12534 (3,1,6) 1.45861 (3,2,5) -1.60183
(3,1,6): (2,1,6) 1.27269 (3,1,5) -1.45861 (3,1,7) 1.53178 (3,2,6) -1.34094
(3,1,7): (2,1,7) 1.27242 (3,1,6) -1.53178 (3,1,8) 1.35621 (3,2,7) -1.09171
(3,1,8): (2,1,8) 1.27216 (3,1,7) -1.35621 (3,1,9) 0.996820 (3,2,8) -0.907601
(3,1,9): (2,1,9) 1.27195 (3,1,8) -0.996820 (3,1,10) 0.525264 (3,2,9) -0.793975
(3,1,10): (2,1,10) 1.27282 (3,1,9) -0.525264 (3,2,10) -0.740383
(3,2,1): (2,2,1) 1.27388 (3,1,1) 1.33917 (3,2,2) -6.278021E-02 (3,3,1) -2.54538
(3,2,2): (2,2,2) 1.27364 (3,1,2) 1.46731 (3,2,1) 6.278021E-02 (3,2,3) 7.751754E-02 (3,3,2) -2.87389
(3,2,3): (2,2,3) 1.27354 (3,1,3) 1.65346 (3,2,2) -7.751754E-02 (3,2,4) 0.553836 (3,3,3) -3.39626
(3,2,4): (2,2,4) 1.27370 (3,1,4) 1.74713 (3,2,3) -0.553836 (3,2,5) 1.27063 (3,3,4) -3.72991
(3,2,5): (2,2,5) 1.27295 (3,1,5) 1.60183 (3,2,4) -1.27063 (3,2,6) 1.71951 (3,3,5) -3.31526
(3,2,6): (2,2,6) 1.27271 (3,1,6) 1.34094 (3,2,5) -1.71951 (3,2,7) 1.78101 (3,3,6) -2.66552
(3,2,7): (2,2,7) 1.27218 (3,1,7) 1.09171 (3,2,6) -1.78101 (3,2,8) 1.54032 (3,3,7) -2.11245
(3,2,8): (2,2,8) 1.27181 (3,1,8) 0.907601 (3,2,7) -1.54032 (3,2,9) 1.11045 (3,3,8) -1.73954
(3,2,9): (2,2,9) 1.27152 (3,1,9) 0.793975 (3,2,8) -1.11045 (3,2,10) 0.578856 (3,3,9) -1.52462
(3,2,10): (2,2,10) 1.27210 (3,1,10) 0.740383 (3,2,9) -0.578856 (3,3,10) -1.42891
(3,3,1): (2,3,1) 1.27428 (3,2,1) 2.54538 (3,3,2) -0.391292 (3,4,1) -3.42459
(3,3,2): (2,3,2) 1.27418 (3,2,2) 2.87389 (3,3,1) 0.391292 (3,3,3) -0.444848 (3,4,2) -4.08831
(3,3,3): (2,3,3) 1.27546 (3,2,3) 3.39626 (3,3,2) 0.444848 (3,3,4) 0.220180 (3,4,3) -5.33066
(3,3,4): (2,3,4) 1.27748 (3,2,4) 3.72991 (3,3,3) -0.220180 (3,3,5) 1.68528 (3,4,4) -6.46600
(3,3,5): (2,3,5) 1.27492 (3,2,5) 3.31526 (3,3,4) -1.68528 (3,3,6) 2.36925 (3,4,5) -5.26741
(3,3,6): (2,3,6) 1.27307 (3,2,6) 2.66552 (3,3,5) -2.36925 (3,3,7) 2.33408 (3,4,6) -3.89627
(3,3,7): (2,3,7) 1.27267 (3,2,7) 2.11245 (3,3,6) -2.33408 (3,3,8) 1.91323 (3,4,7) -2.95522
(3,3,8): (2,3,8) 1.27206 (3,2,8) 1.73954 (3,3,7) -1.91323 (3,3,9) 1.32536 (3,4,8) -2.41390
(3,3,9): (2,3,9) 1.27176 (3,2,9) 1.52462 (3,3,8) -1.32536 (3,3,10) 0.674572 (3,4,9) -2.13680
(3,3,10): (2,3,10) 1.27215 (3,2,10) 1.42891 (3,3,9) -0.674572 (3,4,10) -2.02251
(3,4,1): (2,4,1) 1.27406 (3,3,1) 3.42459 (3,4,2) -1.05501 (3,5,1) -3.64031
(3,4,2): (2,4,2) 1.27592 (3,3,2) 4.08831 (3,4,1) 1.05501 (3,4,3) -1.68720 (3,5,2) -4.72615
(3,4,3): (2,4,3) 1.28414 (3,3,3) 5.33066 (3,4,2) 1.68720 (3,4,4) -0.915162 (3,5,3) -7.38135
(3,4,4): (2,4,4) 1.31270 (3,3,4) 6.46600 (3,4,3) 0.915162 (3,4,5) 2.88387 (3,5,4) -11.5716
(3,4,5): (2,4,5) 1.28379 (3,3,5) 5.26741 (3,4,4) -2.88387 (3,4,6) 3.74040 (3,5,5) -7.40141
(3,4,6): (2,4,6) 1.27492 (3,3,6) 3.89627 (3,4,5) -3.74040 (3,4,7) 3.27512 (3,5,6) -4.69976
(3,4,7): (2,4,7) 1.27230 (3,3,7) 2.95522 (3,4,6) -3.27512 (3,4,8) 2.45455 (3,5,7) -3.39999
(3,4,8): (2,4,8) 1.27180 (3,3,8) 2.41390 (3,4,7) -2.45455 (3,4,9) 1.60247 (3,5,8) -2.82529
(3,4,9): (2,4,9) 1.27126 (3,3,9) 2.13680 (3,4,8) -1.60247 (3,4,10) 0.788859 (3,5,9) -2.58620
(3,4,10): (2,4,10) 1.27164 (3,3,10) 2.02251 (3,4,9) -0.788859 (3,5,10) -2.50163
(3,5,1): (2,5,1) 1.26884 (3,4,1) 3.64031 (3,5,2) -2.14086 (3,6,1) -2.76501
(3,5,2): (2,5,2) 1.27750 (3,4,2) 4.72615 (3,5,1) 2.14086 (3,5,3) -4.34240 (3,6,2) -3.79690
(3,5,3): (2,5,3) 1.34104 (3,4,3) 7.38135 (3,5,2) 4.34240 (3,5,4) -5.10537 (3,6,3) -7.95502
(3,5,4): (2,5,4) 1.67670 (3,4,4) 11.5716 (3,5,3) 5.10537 (3,5,5) 7.05401 (3,6,4) -25.4031
(3,5,5): (2,5,5) 1.34086 (3,4,5) 7.40141 (3,5,4) -7.05401 (3,5,6) 6.44205 (3,6,5) -8.12329
(3,5,6): (2,5,6) 1.27635 (3,4,6) 4.69976 (3,5,5) -6.44205 (3,5,7) 4.57489 (3,6,6) -4.10280
(3,5,7): (2,5,7) 1.26606 (3,4,7) 3.39999 (3,5,6) -4.57489 (3,5,8) 3.02925 (3,6,7) -3.11412
(3,5,8): (2,5,8) 1.26338 (3,4,8) 2.82529 (3,5,7) -3.02925 (3,5,9) 1.84156 (3,6,8) -2.89414
(3,5,9): (2,5,9) 1.26260 (3,4,9) 2.58620 (3,5,8) -1.84156 (3,5,10) 0.873436 (3,6,9) -2.87353
(3,5,10): (2,5,10) 1.26265 (3,4,10) 2.50163 (3,5,9) -0.873436 (3,6,10) -2.88773
(3,6,1): (2,6,1) 1.20375 (3,5,1) 2.76501 (3,6,2) -3.17274 (3,7,1) -0.793057
(3,6,2): (2,6,2) 1.24136 (3,5,2) 3.79690 (3,6,1) 3.17274 (3,6,3) -8.50052 (3,7,2) 0.294684
(3,6,3): (2,6,3) 1.61538 (3,5,3) 7.95502 (3,6,2) 8.50052 (3,6,4) -22.5535 (3,7,3) 4.48642
(3,6,4): (2,6,4) 5.90241 (3,5,4) 25.4031 (3,6,3) 22.5535 (3,6,5) 24.3338 (3,7,4) 21.8104
(3,6,5): (2,6,5) 1.61293 (3,5,5) 8.12329 (3,6,4) -24.3338 (3,6,6) 10.4625 (3,7,5) 4.13979
(3,6,6): (2,6,6) 1.23213 (3,5,6) 4.10280 (3,6,5) -10.4625 (3,6,7) 5.56358 (3,7,6) -0.430143
(3,6,7): (2,6,7) 1.18778 (3,5,7) 3.11412 (3,6,6) -5.56358 (3,6,8) 3.24922 (3,7,7) -1.98166
(3,6,8): (2,6,8) 1.17736 (3,5,8) 2.89414 (3,6,7) -3.24922 (3,6,9) 1.86217 (3,7,8) -2.67834
(3,6,9): (2,6,9) 1.17234 (3,5,9) 2.87353 (3,6,8) -1.86217 (3,6,10) 0.859237 (3,7,9) -3.03664
(3,6,10): (2,6,10) 1.17054 (3,5,10) 2.88773 (3,6,9) -0.859237 (3,7,10) -3.19638
(3,7,1): (2,7,1) 0.533368 (3,6,1) 0.793057 (3,7,2) -2.08500 (3,8,1) 0.760766
(3,7,2): (2,7,2) 0.579257 (3,6,2) -0.294684 (3,7,1) 2.08500 (3,7,3) -4.30878 (3,8,2) 1.94222
(3,7,3): (2,7,3) 0.701421 (3,6,3) -4.48642 (3,7,2) 4.30878 (3,7,4) -5.22945 (3,8,3) 4.71004
(3,7,4): (2,7,4) 1.07027 (3,6,4) -21.8104 (3,7,3) 5.22945 (3,7,5) 6.66320 (3,8,4) 8.85006
(3,7,5): (2,7,5) 0.657905 (3,6,5) -4.13979 (3,7,4) -6.66320 (3,7,6) 5.89260 (3,8,5) 4.25574
(3,7,6): (2,7,6) 0.488590 (3,6,6) 0.430143 (3,7,5) -5.89260 (3,7,7) 4.01206 (3,8,6) 0.965939
(3,7,7): (2,7,7) 0.387376 (3,6,7) 1.98166 (3,7,6) -4.01206 (3,7,8) 2.55254 (3,8,7) -0.905111
(3,7,8): (2,7,8) 0.319368 (3,6,8) 2.67834 (3,7,7) -2.55254 (3,7,9) 1.50387 (3,8,8) -1.94466
(3,7,9): (2,7,9) 0.277298 (3,6,9) 3.03664 (3,7,8) -1.50387 (3,7,10) 0.699502 (3,8,9) -2.50500
(3,7,10): (2,7,10) 0.257711 (3,6,10) 3.19638 (3,7,9) -0.699502 (3,8,10) -2.75316
(3,8,1): (2,8,1) -6.10790 (3,7,1) -0.760766 (3,8,2) -0.903543 (3,9,1) 7.77443
(3,8,2): (2,8,2) -5.71925 (3,7,2) -1.94222 (3,8,1) 0.903543 (3,8,3) -1.54096 (3,9,2) 8.30110
(3,8,3): (2,8,3) -5.06100 (3,7,3) -4.71004 (3,8,2) 1.54096 (3,8,4) -1.08943 (3,9,3) 9.32284
(3,8,4): (2,8,4) -4.60645 (3,7,4) -8.85006 (3,8,3) 1.08943 (3,8,5) 2.06888 (3,9,4) 10.3014
(3,8,5): (2,8,5) -5.48573 (3,7,5) -4.25574 (3,8,4) -2.06888 (3,8,6) 2.60280 (3,9,5) 9.21073
(3,8,6): (2,8,6) -6.60426 (3,7,6) -0.965939 (3,8,5) -2.60280 (3,8,7) 2.14102 (3,9,6) 8.03565
(3,8,7): (2,8,7) -7.52933 (3,7,7) 0.905111 (3,8,6) -2.14102 (3,8,8) 1.51299 (3,9,7) 7.25626
(3,8,8): (2,8,8) -8.18455 (3,7,8) 1.94466 (3,8,7) -1.51299 (3,8,9) 0.943528 (3,9,8) 6.81358
(3,8,9): (2,8,9) -8.59352 (3,7,9) 2.50500 (3,8,8) -0.943528 (3,8,10) 0.451340 (3,9,9) 6.58508
(3,8,10): (2,8,10) -8.78927 (3,7,10) 2.75316 (3,8,9) -0.451340 (3,9,10) 6.48906
(3,9,1): (2,9,1) 0.535118 (3,8,1) -7.77443 (3,9,2) -0.376874 (3,10,1) 7.61772
(3,9,2): (2,9,2) 0.573375 (3,8,2) -8.30110 (3,9,1) 0.376874 (3,9,3) -0.519224 (3,10,2) 7.87140
(3,9,3): (2,9,3) 0.635500 (3,8,3) -9.32284 (3,9,2) 0.519224 (3,9,4) -0.110893 (3,10,3) 8.28114
(3,9,4): (2,9,4) 0.672674 (3,8,4) -10.3014 (3,9,3) 0.110893 (3,9,5) 0.978236 (3,10,4) 8.54214
(3,9,5): (2,9,5) 0.591907 (3,8,5) -9.21073 (3,9,4) -0.978236 (3,9,6) 1.42772 (3,10,5) 8.17192
(3,9,6): (2,9,6) 0.482193 (3,8,6) -8.03565 (3,9,5) -1.42772 (3,9,7) 1.36162 (3,10,6) 7.62215
(3,9,7): (2,9,7) 0.388670 (3,8,7) -7.25626 (3,9,6) -1.36162 (3,9,8) 1.07032 (3,10,7) 7.16163
(3,9,8): (2,9,8) 0.321514 (3,8,8) -6.81358 (3,9,7) -1.07032 (3,9,9) 0.715029 (3,10,8) 6.85037
(3,9,9): (2,9,9) 0.279341 (3,8,9) -6.58508 (3,9,8) -0.715029 (3,9,10) 0.355318 (3,10,9) 6.66882
(3,9,10): (2,9,10) 0.259450 (3,8,10) -6.48906 (3,9,9) -0.355318 (3,10,10) 6.58694
(3,10,1): (2,10,1) 1.20169 (3,9,1) -7.61772 (3,10,2) -0.123201 (3,11,1) 6.54146
(3,10,2): (2,10,2) 1.20519 (3,9,2) -7.87140 (3,10,1) 0.123201 (3,10,3) -0.109481 (3,11,2) 6.65455
(3,10,3): (2,10,3) 1.21116 (3,9,3) -8.28114 (3,10,2) 0.109481 (3,10,4) 0.150108 (3,11,3) 6.81236
(3,10,4): (2,10,4) 1.21411 (3,9,4) -8.54214 (3,10,3) -0.150108 (3,10,5) 0.608014 (3,11,4) 6.87261
(3,10,5): (2,10,5) 1.20638 (3,9,5) -8.17192 (3,10,4) -0.608014 (3,10,6) 0.877951 (3,11,5) 6.69855
(3,10,6): (2,10,6) 1.19532 (3,9,6) -7.62215 (3,10,5) -0.877951 (3,10,7) 0.901097 (3,11,6) 6.40689
(3,10,7): (2,10,7) 1.18552 (3,9,7) -7.16163 (3,10,6) -0.901097 (3,10,8) 0.759062 (3,11,7) 6.12155
(3,10,8): (2,10,8) 1.17839 (3,9,8) -6.85037 (3,10,7) -0.759062 (3,10,9) 0.533476 (3,11,8) 5.90109
(3,10,9): (2,10,9) 1.17385 (3,9,9) -6.66882 (3,10,8) -0.533476 (3,10,10) 0.273438 (3,11,9) 5.75873
(3,10,10): (2,10,10) 1.17208 (3,9,10) -6.58694 (3,10,9) -0.273438 (3,11,10) 5.69025
(3,11,1): (2,11,1) 1.26789 (3,10,1) -6.54146 (3,11,2) -1.010548E-02 (3,12,1) 5.28539
(3,11,2): (2,11,2) 1.26818 (3,10,2) -6.65455 (3,11,1) 1.010548E-02 (3,11,3) 4.832222E-02 (3,12,2) 5.33073
(3,11,3): (2,11,3) 1.26859 (3,10,3) -6.81236 (3,11,2) -4.832222E-02 (3,11,4) 0.210360 (3,12,3) 5.38416
(3,11,4): (2,11,4) 1.26873 (3,10,4) -6.87261 (3,11,3) -0.210360 (3,11,5) 0.433953 (3,12,4) 5.38281
(3,11,5): (2,11,5) 1.26782 (3,10,5) -6.69855 (3,11,4) -0.433953 (3,11,6) 0.586296 (3,12,5) 5.28130
(3,11,6): (2,11,6) 1.26652 (3,10,6) -6.40689 (3,11,5) -0.586296 (3,11,7) 0.615750 (3,12,6) 5.11413
(3,11,7): (2,11,7) 1.26535 (3,10,7) -6.12155 (3,11,6) -0.615750 (3,11,8) 0.538605 (3,12,7) 4.93685
(3,11,8): (2,11,8) 1.26441 (3,10,8) -5.90109 (3,11,7) -0.538605 (3,11,9) 0.391114 (3,12,8) 4.78795
(3,11,9): (2,11,9) 1.26382 (3,10,9) -5.75873 (3,11,8) -0.391114 (3,11,10) 0.204965 (3,12,9) 4.68506
(3,11,10): (2,11,10) 1.26380 (3,10,10) -5.69025 (3,11,9) -0.204965 (3,12,10) 4.63335
(3,12,1): (2,12,1) 1.27391 (3,11,1) -5.28539 (3,12,2) 3.523285E-02 (3,13,1) 3.97743
(3,12,2): (2,12,2) 1.27373 (3,11,2) -5.33073 (3,12,1) -3.523285E-02 (3,12,3) 0.101751 (3,13,2) 3.99301
(3,12,3): (2,12,3) 1.27373 (3,11,3) -5.38416 (3,12,2) -0.101751 (3,12,4) 0.209012 (3,13,3) 4.00573
(3,12,4): (2,12,4) 1.27358 (3,11,4) -5.38281 (3,12,3) -0.209012 (3,12,5) 0.332442 (3,13,4) 3.98836
(3,12,5): (2,12,5) 1.27334 (3,11,5) -5.28130 (3,12,4) -0.332442 (3,12,6) 0.419130 (3,13,5) 3.92416
(3,12,6): (2,12,6) 1.27306 (3,11,6) -5.11413 (3,12,5) -0.419130 (3,12,7) 0.438470 (3,13,6) 3.82502
(3,12,7): (2,12,7) 1.27277 (3,11,7) -4.93685 (3,12,6) -0.438470 (3,12,8) 0.389703 (3,13,7) 3.71635
(3,12,8): (2,12,8) 1.27259 (3,11,8) -4.78795 (3,12,7) -0.389703 (3,12,9) 0.288218 (3,13,8) 3.62060
(3,12,9): (2,12,9) 1.27240 (3,11,9) -4.68506 (3,12,8) -0.288218 (3,12,10) 0.153262 (3,13,9) 3.55162
(3,12,10): (2,12,10) 1.27262 (3,11,10) -4.63335 (3,12,9) -0.153262 (3,13,10) 3.51597
(3,13,1): (2,13,1) 1.27381 (3,12,1) -3.97743 (3,13,2) 5.080618E-02 (3,14,1) 2.65416
(3,13,2): (2,13,2) 1.27372 (3,12,2) -3.99301 (3,13,1) -5.080618E-02 (3,13,3) 0.114475 (3,14,2) 2.65817
(3,13,3): (2,13,3) 1.27363 (3,12,3) -4.00573 (3,13,2) -0.114475 (3,13,4) 0.191642 (3,14,3) 2.65765
(3,13,4): (2,13,4) 1.27351 (3,12,4) -3.98836 (3,13,3) -0.191642 (3,13,5) 0.268241 (3,14,4) 2.64102
(3,13,5): (2,13,5) 1.27334 (3,12,5) -3.92416 (3,13,4) -0.268241 (3,13,6) 0.319989 (3,14,5) 2.60201
(3,13,6): (2,13,6) 1.27318 (3,12,6) -3.82502 (3,13,5) -0.319989 (3,13,7) 0.329802 (3,14,6) 2.54534
(3,13,7): (2,13,7) 1.27304 (3,12,7) -3.71635 (3,13,6) -0.329802 (3,13,8) 0.293951 (3,14,7) 2.48272
(3,13,8): (2,13,8) 1.27289 (3,12,8) -3.62060 (3,13,7) -0.293951 (3,13,9) 0.219236 (3,14,8) 2.42617
(3,13,9): (2,13,9) 1.27283 (3,12,9) -3.55162 (3,13,8) -0.219236 (3,13,10) 0.117611 (3,14,9) 2.38444
(3,13,10): (2,13,10) 1.27305 (3,12,10) -3.51597 (3,13,9) -0.117611 (3,14,10) 2.36253
(3,14,1): (2,14,1) 1.27345 (3,13,1) -2.65416 (3,14,2) 5.481646E-02 (3,15,1) 1.32736
(3,14,2): (2,14,2) 1.27326 (3,13,2) -2.65817 (3,14,1) -5.481646E-02 (3,14,3) 0.113951 (3,15,2) 1.32810
(3,14,3): (2,14,3) 1.27320 (3,13,3) -2.65765 (3,14,2) -0.113951 (3,14,4) 0.175019 (3,15,3) 1.32584
(3,14,4): (2,14,4) 1.27309 (3,13,4) -2.64102 (3,14,3) -0.175019 (3,14,5) 0.229224 (3,15,4) 1.31654
(3,14,5): (2,14,5) 1.27294 (3,13,5) -2.60201 (3,14,4) -0.229224 (3,14,6) 0.263326 (3,15,5) 1.29803
(3,14,6): (2,14,6) 1.27281 (3,13,6) -2.54534 (3,14,5) -0.263326 (3,14,7) 0.267176 (3,15,6) 1.27215
(3,14,7): (2,14,7) 1.27268 (3,13,7) -2.48272 (3,14,6) -0.267176 (3,14,8) 0.237408 (3,15,7) 1.24353
(3,14,8): (2,14,8) 1.27260 (3,13,8) -2.42617 (3,14,7) -0.237408 (3,14,9) 0.177503 (3,15,8) 1.21740
(3,14,9): (2,14,9) 1.27252 (3,13,9) -2.38444 (3,14,8) -0.177503 (3,14,10) 9.570189E-02 (3,15,9) 1.19789
(3,14,10): (2,14,10) 1.27278 (3,13,10) -2.36253 (3,14,9) -9.570189E-02 (3,15,10) 1.18759
(3,15,1): (2,15,1) 1.27350 (3,14,1) -1.32736 (3,15,2) 5.555948E-02
(3,15,2): (2,15,2) 1.27326 (3,14,2) -1.32810 (3,15,1) -5.555948E-02 (3,15,3) 0.111697
(3,15,3): (2,15,3) 1.27318 (3,14,3) -1.32584 (3,15,2) -0.111697 (3,15,4) 0.165710
(3,15,4): (2,15,4) 1.27309 (3,14,4) -1.31654 (3,15,3) -0.165710 (3,15,5) 0.210715
(3,15,5): (2,15,5) 1.27297 (3,14,5) -1.29803 (3,15,4) -0.210715 (3,15,6) 0.237446
(3,15,6): (2,15,6) 1.27286 (3,14,6) -1.27215 (3,15,5) -0.237446 (3,15,7) 0.238559
(3,15,7): (2,15,7) 1.27276 (3,14,7) -1.24353 (3,15,6) -0.238559 (3,15,8) 0.211275
(3,15,8): (2,15,8) 1.27269 (3,14,8) -1.21740 (3,15,7) -0.211275 (3,15,9) 0.157993
(3,15,9): (2,15,9) 1.27262 (3,14,9) -1.19789 (3,15,8) -0.157993 (3,15,10) 8.540191E-02
(3,15,10): (2,15,10) 1.27299 (3,14,10) -1.18759 (3,15,9) -8.540191E-02
1
  HEAD IN LAYER   1 AT END OF TIME STEP   1 IN STRESS PERIOD    1
  ---------------------------------------------------------------------------

            1           2           3           4           5           6           7           8           9          10
 ........................................................................................................................
   1    45.09       45.09       45.09       45.09       45.09       45.10       45.10       45.11       45.11       45.11    
   2    45.08       45.08       45.08       45.09       45.09       45.09       45.10       45.10       45.11       45.11    
   3    45.08       45.08       45.07       45.08       45.08       45.09       45.09       45.10       45.10       45.10    
   4    45.07       45.06       45.06       45.06       45.07       45.08       45.09       45.09       45.10       45.10    
   5    45.06       45.05       45.04       45.03       45.04       45.06       45.08       45.08       45.09       45.09    
   6    45.05       45.04       45.02       44.98       45.02       45.05       45.07       45.08       45.08       45.08    
   7    45.04       45.04       45.03       45.01       45.03       45.05       45.06       45.06       45.07       45.07    
   8    45.01       45.01       45.01       45.01       45.01       45.01       45.01       45.01       45.01       45.01    
   9    45.07       45.07       45.07       45.06       45.07       45.07       45.07       45.08       45.08       45.08    
  10    45.09       45.09       45.09       45.09       45.09       45.10       45.10       45.10       45.10       45.10    
  11    45.11       45.11       45.11       45.11       45.11       45.12       45.12       45.12       45.12       45.12    
  12    45.13       45.13       45.13       45.13       45.13       45.13       45.13       45.13       45.13       45.13    
  13    45.14       45.14       45.14       45.14       45.14       45.14       45.14       45.14       45.14       45.14    
  14    45.15       45.15       45.15       45.15       45.15       45.15       45.15       45.15       45.15       45.15    
  15    45.15       45.15       45.15       45.15       45.15       45.15       45.15       45.15       45.15       45.15    
1
  HEAD IN LAYER   2 AT END OF TIME STEP   1 IN STRESS PERIOD    1
  ---------------------------------------------------------------------------

            1           2           3           4           5           6           7           8           9          10
 ........................................................................................................................
   1    45.08       45.08       45.09       45.09       45.09       45.09       45.10       45.10       45.11       45.11    
   2    45.08       45.08       45.08       45.08       45.09       45.09       45.10       45.10       45.10       45.11    
   3    45.07       45.07       45.07       45.07       45.08       45.08       45.09       45.10       45.10       45.10    
   4    45.06       45.06       45.06       45.05       45.06       45.07       45.08       45.09       45.09       45.10    
   5    45.05       45.05       45.04       45.02       45.04       45.06       45.07       45.08       45.09       45.09    
   6    45.05       45.04       45.01       44.96       45.02       45.05       45.06       45.07       45.08       45.08    
   7    45.04       45.04       45.02       45.01       45.03       45.04       45.06       45.06       45.07       45.07    
   8    45.03       45.02       45.02       45.02       45.02       45.03       45.03       45.03       45.04       45.04    
   9    45.07       45.06       45.06       45.06       45.07       45.07       45.07       45.08       45.08       45.08    
  10    45.09       45.09       45.09       45.09       45.09       45.09       45.10       45.10       45.10       45.10    
  11    45.11       45.11       45.11       45.11       45.11       45.11       45.11       45.12       45.12       45.12    
  12    45.12       45.12       45.12       45.12       45.13       45.13       45.13       45.13       45.13       45.13    
  13    45.13       45.13       45.14       45.14       45.14       45.14       45.14       45.14       45.14       45.14    
  14    45.14       45.14       45.14       45.14       45.14       45.14       45.15       45.15       45.15       45.15    
  15    45.15       45.15       45.15       45.15       45.15       45.15       45.15       45.15       45.15       45.15    
1
  HEAD IN LAYER   3 AT END OF TIME STEP   1 IN STRESS PERIOD    1
  ---------------------------------------------------------------------------

            1           2           3           4           5           6           7           8           9          10
 ........................................................................................................................
   1    45.08       45.08       45.08       45.08       45.09       45.09       45.10       45.10       45.10       45.10    
   2    45.08       45.08       45.08       45.08       45.08       45.09       45.09       45.10       45.10       45.10    
   3    45.07       45.07       45.07       45.07       45.07       45.08       45.09       45.09       45.10       45.10    
   4    45.06       45.06       45.05       45.05       45.06       45.07       45.08       45.09       45.09       45.09    
   5    45.05       45.04       45.03       45.02       45.04       45.06       45.07       45.08       45.08       45.08    
   6    45.04       45.03       45.01       44.94       45.01       45.04       45.06       45.07       45.07       45.08    
   7    45.04       45.03       45.02       45.01       45.03       45.04       45.05       45.06       45.07       45.07    
   8    45.04       45.04       45.04       45.03       45.04       45.05       45.05       45.06       45.06       45.06    
   9    45.06       45.06       45.06       45.06       45.06       45.07       45.07       45.08       45.08       45.08    
  10    45.09       45.09       45.09       45.09       45.09       45.09       45.09       45.09       45.10       45.10    
  11    45.10       45.10       45.10       45.11       45.11       45.11       45.11       45.11       45.11       45.11    
  12    45.12       45.12       45.12       45.12       45.12       45.12       45.12       45.13       45.13       45.13    
  13    45.13       45.13       45.13       45.13       45.13       45.13       45.13       45.14       45.14       45.14    
  14    45.14       45.14       45.14       45.14       45.14       45.14       45.14       45.14       45.14       45.14    
  15    45.14       45.14       45.14       45.14       45.14       45.14       45.15       45.15       45.15       45.15    

 HEAD WILL BE SAVED ON UNIT 1015 AT END OF TIME STEP    1, STRESS PERIOD    1


  VOLUME BUDGET FOR ENTIRE MODEL AT END OF TIME STEP    1, STRESS PERIOD   1
  ---------------------------------------------------------------------------------------------------

     CUMULATIVE VOLUME      L**3       RATES FOR THIS TIME STEP      L**3/T          PACKAGE NAME    
     ------------------                 ------------------------                     ----------------

           IN:                                      IN:
           ---                                      ---
                 WEL =           0.0000                   WEL =           0.0000     WEL_0           
                 RIV =           0.0000                   RIV =           0.0000     RIV_0           
                 RCH =         205.4795                   RCH =         205.4795     RCH             

            TOTAL IN =         205.4795              TOTAL IN =         205.4795

          OUT:                                     OUT:
          ----                                     ----
                 WEL =         100.0000                   WEL =         100.0000     WEL_0           
                 RIV =         104.5886                   RIV =         104.5886     RIV_0           
                 RCH =           0.0000                   RCH =           0.0000     RCH             

           TOTAL OUT =         204.5886             TOTAL OUT =         204.5886

            IN - OUT =           0.8908              IN - OUT =           0.8908

 PERCENT DISCREPANCY =           0.43     PERCENT DISCREPANCY =           0.43




         TIME SUMMARY AT END OF TIME STEP    1 IN STRESS PERIOD    1
                    SECONDS     MINUTES      HOURS       DAYS        YEARS
                    -----------------------------------------------------------
   TIME STEP LENGTH  86400.      1440.0      24.000      1.0000     2.73785E-03
 STRESS PERIOD TIME  86400.      1440.0      24.000      1.0000     2.73785E-03
         TOTAL TIME  86400.      1440.0      24.000      1.0000     2.73785E-03


end timestep


start timestep kper="2" kstp="1" mode="normal"


 END OF FILE DETECTED IN OUTPUT CONTROL.
 CURRENT OUTPUT CONTROL SETTINGS WILL BE 
 REPEATED UNTIL THE END OF THE SIMULATION.

 OUTPUT CONTROL FOR STRESS PERIOD 2 IS REPEATED USING SETTINGS FROM A PREVIOUS STRESS PERIOD.

 REUSING RIVS FROM LAST STRESS PERIOD

 REUSING RCHS FROM LAST STRESS PERIOD
 UBDSV1 SAVING     FLOW-JA-FACE ON UNIT   1014 AT TIME STEP      1, STRESS PERIOD      2
 UBDSV06 SAVING       DATA-SPDIS IN MODEL SYMP03           PACKAGE NPF             CONNECTED TO MODEL SYMP03           PACKAGE NPF              ON UNIT   1014 AT TIME STEP      1, STRESS PERIOD      2
 UBDSV06 SAVING              WEL IN MODEL SYMP03           PACKAGE SYMP03          CONNECTED TO MODEL SYMP03           PACKAGE WEL_0            ON UNIT   1014 AT TIME STEP      1, STRESS PERIOD      2
 UBDSV06 SAVING              RIV IN MODEL SYMP03           PACKAGE SYMP03          CONNECTED TO MODEL SYMP03           PACKAGE RIV_0            ON UNIT   1014 AT TIME STEP      1, STRESS PERIOD      2
 UBDSV06 SAVING              RCH IN MODEL SYMP03           PACKAGE SYMP03          CONNECTED TO MODEL SYMP03           PACKAGE RCH              ON UNIT   1014 AT TIME STEP      1, STRESS PERIOD      2

    CALCULATED INTERCELL FLOW FOR PERIOD 2 STEP 1
(1,1,1): (1,1,2) 7.658247E-05 (1,2,1) -9.462792E-02 (2,1,1) -1.27531
(1,1,2): (1,1,1) -7.658247E-05 (1,1,3) 1.050465E-05 (1,2,2) -9.464347E-02 (2,1,2) -1.27544
(1,1,3): (1,1,2) -1.050465E-05 (1,1,4) -1.166576E-05 (1,2,3) -9.464614E-02 (2,1,3) -1.27546
(1,1,4): (1,1,3) 1.166576E-05 (1,1,5) -2.851321E-05 (1,2,4) -9.464614E-02 (2,1,4) -1.27546
(1,1,5): (1,1,4) 2.851321E-05 (1,1,6) -4.305013E-05 (1,2,5) -9.464790E-02 (2,1,5) -1.27546
(1,1,6): (1,1,5) 4.305013E-05 (1,1,7) -5.278173E-05 (1,2,6) -9.465177E-02 (2,1,6) -1.27546
(1,1,7): (1,1,6) 5.278173E-05 (1,1,8) -5.736487E-05 (1,2,7) -9.465637E-02 (2,1,7) -1.27545
(1,1,8): (1,1,7) 5.736487E-05 (1,1,9) -5.710185E-05 (1,2,8) -9.466084E-02 (2,1,8) -1.27545
(1,1,9): (1,1,8) 5.710185E-05 (1,1,10) -5.761596E-05 (1,2,9) -9.466784E-02 (2,1,9) -1.27544
(1,1,10): (1,1,9) 5.761596E-05 (1,2,10) -9.468342E-02 (2,1,10) -1.27549
(1,2,1): (1,1,1) 9.462792E-02 (1,2,2) 6.100199E-05 (1,3,1) -0.189229 (2,2,1) -1.27561
(1,2,2): (1,1,2) 9.464347E-02 (1,2,1) -6.100199E-05 (1,2,3) 7.839957E-06 (1,3,2) -0.189232 (2,2,2) -1.27574
(1,2,3): (1,1,3) 9.464614E-02 (1,2,2) -7.839957E-06 (1,2,4) -1.166975E-05 (1,3,3) -0.189231 (2,2,3) -1.27575
(1,2,4): (1,1,4) 9.464614E-02 (1,2,3) 1.166975E-05 (1,2,5) -3.027673E-05 (1,3,4) -0.189230 (2,2,4) -1.27576
(1,2,5): (1,1,5) 9.464790E-02 (1,2,4) 3.027673E-05 (1,2,6) -4.692283E-05 (1,3,5) -0.189233 (2,2,5) -1.27576
(1,2,6): (1,1,6) 9.465177E-02 (1,2,5) 4.692283E-05 (1,2,7) -5.739414E-05 (1,3,6) -0.189239 (2,2,6) -1.27575
(1,2,7): (1,1,7) 9.465637E-02 (1,2,6) 5.739414E-05 (1,2,8) -6.184312E-05 (1,3,7) -0.189246 (2,2,7) -1.27575
(1,2,8): (1,1,8) 9.466084E-02 (1,2,7) 6.184312E-05 (1,2,9) -6.409983E-05 (1,3,8) -0.189252 (2,2,8) -1.27575
(1,2,9): (1,1,9) 9.466784E-02 (1,2,8) 6.409983E-05 (1,2,10) -7.317484E-05 (1,3,9) -0.189256 (2,2,9) -1.27574
(1,2,10): (1,1,10) 9.468342E-02 (1,2,9) 7.317484E-05 (1,3,10) -0.189257 (2,2,10) -1.27584
(1,3,1): (1,2,1) 0.189229 (1,3,2) 5.769388E-05 (1,4,1) -0.283566 (2,3,1) -1.27584
(1,3,2): (1,2,2) 0.189232 (1,3,1) -5.769388E-05 (1,3,3) 9.603095E-06 (1,4,2) -0.283566 (2,3,2) -1.27597
(1,3,3): (1,2,3) 0.189231 (1,3,2) -9.603095E-06 (1,3,4) -1.069076E-05 (1,4,3) -0.283562 (2,3,3) -1.27598
(1,3,4): (1,2,4) 0.189230 (1,3,3) 1.069076E-05 (1,3,5) -3.346510E-05 (1,4,4) -0.283561 (2,3,4) -1.27598
(1,3,5): (1,2,5) 0.189233 (1,3,4) 3.346510E-05 (1,3,6) -5.340793E-05 (1,4,5) -0.283565 (2,3,5) -1.27599
(1,3,6): (1,2,6) 0.189239 (1,3,5) 5.340793E-05 (1,3,7) -6.436582E-05 (1,4,6) -0.283573 (2,3,6) -1.27599
(1,3,7): (1,2,7) 0.189246 (1,3,6) 6.436582E-05 (1,3,8) -6.774986E-05 (1,4,7) -0.283579 (2,3,7) -1.27598
(1,3,8): (1,2,8) 0.189252 (1,3,7) 6.774986E-05 (1,3,9) -6.838828E-05 (1,4,8) -0.283583 (2,3,8) -1.27597
(1,3,9): (1,2,9) 0.189256 (1,3,8) 6.838828E-05 (1,3,10) -7.416275E-05 (1,4,9) -0.283585 (2,3,9) -1.27596
(1,3,10): (1,2,10) 0.189257 (1,3,9) 7.416275E-05 (1,4,10) -0.283582 (2,3,10) -1.27605
(1,4,1): (1,3,1) 0.283566 (1,4,2) 5.778379E-05 (1,5,1) -0.378837 (2,4,1) -1.27490
(1,4,2): (1,3,2) 0.283566 (1,4,1) -5.778379E-05 (1,4,3) 1.320241E-05 (1,5,2) -0.378838 (2,4,2) -1.27502
(1,4,3): (1,3,3) 0.283562 (1,4,2) -1.320241E-05 (1,4,4) -9.525232E-06 (1,5,3) -0.378837 (2,4,3) -1.27503
(1,4,4): (1,3,4) 0.283561 (1,4,3) 9.525232E-06 (1,4,5) -3.772883E-05 (1,5,4) -0.378839 (2,4,4) -1.27505
(1,4,5): (1,3,5) 0.283565 (1,4,4) 3.772883E-05 (1,4,6) -6.110489E-05 (1,5,5) -0.378841 (2,4,5) -1.27506
(1,4,6): (1,3,6) 0.283573 (1,4,5) 6.110489E-05 (1,4,7) -7.099529E-05 (1,5,6) -0.378844 (2,4,6) -1.27505
(1,4,7): (1,3,7) 0.283579 (1,4,6) 7.099529E-05 (1,4,8) -7.190104E-05 (1,5,7) -0.378845 (2,4,7) -1.27503
(1,4,8): (1,3,8) 0.283583 (1,4,7) 7.190104E-05 (1,4,9) -6.970786E-05 (1,5,8) -0.378844 (2,4,8) -1.27501
(1,4,9): (1,3,9) 0.283585 (1,4,8) 6.970786E-05 (1,4,10) -7.141441E-05 (1,5,9) -0.378841 (2,4,9) -1.27500
(1,4,10): (1,3,10) 0.283582 (1,4,9) 7.141441E-05 (1,5,10) -0.378837 (2,4,10) -1.27508
(1,5,1): (1,4,1) 0.378837 (1,5,2) 5.662157E-05 (1,6,1) -0.488021 (2,5,1) -1.26097
(1,5,2): (1,4,2) 0.378838 (1,5,1) -5.662157E-05 (1,5,3) 1.481239E-05 (1,6,2) -0.488028 (2,5,2) -1.26110
(1,5,3): (1,4,3) 0.378837 (1,5,2) -1.481239E-05 (1,5,4) -1.074383E-05 (1,6,3) -0.488033 (2,5,3) -1.26112
(1,5,4): (1,4,4) 0.378839 (1,5,3) 1.074383E-05 (1,5,5) -4.024465E-05 (1,6,4) -0.488036 (2,5,4) -1.26116
(1,5,5): (1,4,5) 0.378841 (1,5,4) 4.024465E-05 (1,5,6) -6.437796E-05 (1,6,5) -0.488033 (2,5,5) -1.26118
(1,5,6): (1,4,6) 0.378844 (1,5,5) 6.437796E-05 (1,5,7) -7.253478E-05 (1,6,6) -0.488026 (2,5,6) -1.26115
(1,5,7): (1,4,7) 0.378845 (1,5,6) 7.253478E-05 (1,5,8) -7.115771E-05 (1,6,7) -0.488018 (2,5,7) -1.26111
(1,5,8): (1,4,8) 0.378844 (1,5,7) 7.115771E-05 (1,5,9) -6.710861E-05 (1,6,8) -0.488009 (2,5,8) -1.26108
(1,5,9): (1,4,9) 0.378841 (1,5,8) 6.710861E-05 (1,5,10) -6.692799E-05 (1,6,9) -0.488001 (2,5,9) -1.26107
(1,5,10): (1,4,10) 0.378837 (1,5,9) 6.692799E-05 (1,6,10) -0.487995 (2,5,10) -1.26113
(1,6,1): (1,5,1) 0.488021 (1,6,2) 4.991866E-05 (1,7,1) -0.739722 (2,6,1) -1.11845
(1,6,2): (1,5,2) 0.488028 (1,6,1) -4.991866E-05 (1,6,3) 1.081053E-05 (1,7,2) -0.739742 (2,6,2) -1.11860
(1,6,3): (1,5,3) 0.488033 (1,6,2) -1.081053E-05 (1,6,4) -1.298353E-05 (1,7,3) -0.739751 (2,6,3) -1.11863
(1,6,4): (1,5,4) 0.488036 (1,6,3) 1.298353E-05 (1,6,5) -3.876306E-05 (1,7,4) -0.739750 (2,6,4) -1.11868
(1,6,5): (1,5,5) 0.488033 (1,6,4) 3.876306E-05 (1,6,6) -5.788874E-05 (1,7,5) -0.739740 (2,6,5) -1.11868
(1,6,6): (1,5,6) 0.488026 (1,6,5) 5.788874E-05 (1,6,7) -6.424136E-05 (1,7,6) -0.739720 (2,6,6) -1.11864
(1,6,7): (1,5,7) 0.488018 (1,6,6) 6.424136E-05 (1,6,8) -6.268392E-05 (1,7,7) -0.739699 (2,6,7) -1.11860
(1,6,8): (1,5,8) 0.488009 (1,6,7) 6.268392E-05 (1,6,9) -5.923627E-05 (1,7,8) -0.739679 (2,6,8) -1.11858
(1,6,9): (1,5,9) 0.488001 (1,6,8) 5.923627E-05 (1,6,10) -6.117820E-05 (1,7,9) -0.739663 (2,6,9) -1.11856
(1,6,10): (1,5,10) 0.487995 (1,6,9) 6.117820E-05 (1,7,10) -0.739650 (2,6,10) -1.11862
(1,7,1): (1,6,1) 0.739722 (1,7,2) 3.054507E-05 (1,8,1) -2.39972 (2,7,1) 0.289860
(1,7,2): (1,6,2) 0.739742 (1,7,1) -3.054507E-05 (1,7,3) 2.503285E-06 (1,8,2) -2.39975 (2,7,2) 0.289728
(1,7,3): (1,6,3) 0.739751 (1,7,2) -2.503285E-06 (1,7,4) -1.210052E-05 (1,8,3) -2.39975 (2,7,3) 0.289688
(1,7,4): (1,6,4) 0.739750 (1,7,3) 1.210052E-05 (1,7,5) -2.912186E-05 (1,8,4) -2.39974 (2,7,4) 0.289661
(1,7,5): (1,6,5) 0.739740 (1,7,4) 2.912186E-05 (1,7,6) -3.895397E-05 (1,8,5) -2.39971 (2,7,5) 0.289670
(1,7,6): (1,6,6) 0.739720 (1,7,5) 3.895397E-05 (1,7,7) -4.362288E-05 (1,8,6) -2.39968 (2,7,6) 0.289686
(1,7,7): (1,6,7) 0.739699 (1,7,6) 4.362288E-05 (1,7,8) -4.341469E-05 (1,8,7) -2.39964 (2,7,7) 0.289706
(1,7,8): (1,6,8) 0.739679 (1,7,7) 4.341469E-05 (1,7,9) -4.280687E-05 (1,8,8) -2.39960 (2,7,8) 0.289720
(1,7,9): (1,6,9) 0.739663 (1,7,8) 4.280687E-05 (1,7,10) -4.798117E-05 (1,8,9) -2.39957 (2,7,9) 0.289722
(1,7,10): (1,6,10) 0.739650 (1,7,9) 4.798117E-05 (1,8,10) -2.39952 (2,7,10) 0.289646
(1,8,1): (1,7,1) 2.39972 (1,8,2) 1.520585E-06 (1,9,1) 2.39841 (2,8,1) 14.3949
(1,8,2): (1,7,2) 2.39975 (1,8,1) -1.520585E-06 (1,8,3) -4.098399E-07 (1,9,2) 2.39842 (2,8,2) 14.3949
(1,8,3): (1,7,3) 2.39975 (1,8,2) 4.098399E-07 (1,8,4) -1.806538E-06 (1,9,3) 2.39842 (2,8,3) 14.3949
(1,8,4): (1,7,4) 2.39974 (1,8,3) 1.806538E-06 (1,8,5) -3.382400E-06 (1,9,4) 2.39841 (2,8,4) 14.3949
(1,8,5): (1,7,5) 2.39971 (1,8,4) 3.382400E-06 (1,8,6) -4.586760E-06 (1,9,5) 2.39841 (2,8,5) 14.3948
(1,8,6): (1,7,6) 2.39968 (1,8,5) 4.586760E-06 (1,8,7) -5.092507E-06 (1,9,6) 2.39840 (2,8,6) 14.3946
(1,8,7): (1,7,7) 2.39964 (1,8,6) 5.092507E-06 (1,8,8) -5.081652E-06 (1,9,7) 2.39839 (2,8,7) 14.3945
(1,8,8): (1,7,8) 2.39960 (1,8,7) 5.081652E-06 (1,8,9) -5.081441E-06 (1,9,8) 2.39839 (2,8,8) 14.3944
(1,8,9): (1,7,9) 2.39957 (1,8,8) 5.081441E-06 (1,8,10) -5.607161E-06 (1,9,9) 2.39838 (2,8,9) 14.3942
(1,8,10): (1,7,10) 2.39952 (1,8,9) 5.607161E-06 (1,9,10) 2.39836 (2,8,10) 14.3941
(1,9,1): (1,8,1) -2.39841 (1,9,2) 1.282827E-05 (1,10,1) 0.738487 (2,9,1) 0.290068
(1,9,2): (1,8,2) -2.39842 (1,9,1) -1.282827E-05 (1,9,3) -3.150177E-06 (1,10,2) 0.738474 (2,9,2) 0.289983
(1,9,3): (1,8,3) -2.39842 (1,9,2) 3.150177E-06 (1,9,4) -6.130786E-06 (1,10,3) 0.738473 (2,9,3) 0.289975
(1,9,4): (1,8,4) -2.39841 (1,9,3) 6.130786E-06 (1,9,5) -8.906323E-06 (1,10,4) 0.738475 (2,9,4) 0.289966
(1,9,5): (1,8,5) -2.39841 (1,9,4) 8.906323E-06 (1,9,6) -1.195114E-05 (1,10,5) 0.738480 (2,9,5) 0.289951
(1,9,6): (1,8,6) -2.39840 (1,9,5) 1.195114E-05 (1,9,7) -1.349448E-05 (1,10,6) 0.738486 (2,9,6) 0.289938
(1,9,7): (1,8,7) -2.39839 (1,9,6) 1.349448E-05 (1,9,8) -1.378348E-05 (1,10,7) 0.738494 (2,9,7) 0.289928
(1,9,8): (1,8,8) -2.39839 (1,9,7) 1.378348E-05 (1,9,9) -1.509348E-05 (1,10,8) 0.738503 (2,9,8) 0.289920
(1,9,9): (1,8,9) -2.39838 (1,9,8) 1.509348E-05 (1,9,10) -2.079921E-05 (1,10,9) 0.738512 (2,9,9) 0.289911
(1,9,10): (1,8,10) -2.39836 (1,9,9) 2.079921E-05 (1,10,10) 0.738519 (2,9,10) 0.289860
(1,10,1): (1,9,1) -0.738487 (1,10,2) 6.772329E-07 (1,11,1) 0.486907 (2,10,1) -1.11843
(1,10,2): (1,9,2) -0.738474 (1,10,1) -6.772329E-07 (1,10,3) -4.812809E-06 (1,11,2) 0.486892 (2,10,2) -1.11849
(1,10,3): (1,9,3) -0.738473 (1,10,2) 4.812809E-06 (1,10,4) -3.596768E-06 (1,11,3) 0.486892 (2,10,3) -1.11849
(1,10,4): (1,9,4) -0.738475 (1,10,3) 3.596768E-06 (1,10,5) -4.137783E-06 (1,11,4) 0.486896 (2,10,4) -1.11849
(1,10,5): (1,9,5) -0.738480 (1,10,4) 4.137783E-06 (1,10,6) -5.209680E-06 (1,11,5) 0.486905 (2,10,5) -1.11849
(1,10,6): (1,9,6) -0.738486 (1,10,5) 5.209680E-06 (1,10,7) -5.291732E-06 (1,11,6) 0.486916 (2,10,6) -1.11848
(1,10,7): (1,9,7) -0.738494 (1,10,6) 5.291732E-06 (1,10,8) -4.926455E-06 (1,11,7) 0.486928 (2,10,7) -1.11847
(1,10,8): (1,9,8) -0.738503 (1,10,7) 4.926455E-06 (1,10,9) -6.390789E-06 (1,11,8) 0.486941 (2,10,8) -1.11846
(1,10,9): (1,9,9) -0.738512 (1,10,8) 6.390789E-06 (1,10,10) -1.377822E-05 (1,11,9) 0.486954 (2,10,9) -1.11846
(1,10,10): (1,9,10) -0.738519 (1,10,9) 1.377822E-05 (1,11,10) 0.486967 (2,10,10) -1.11848
(1,11,1): (1,10,1) -0.486907 (1,11,2) -1.393652E-05 (1,12,1) 0.377894 (2,11,1) -1.26091
(1,11,2): (1,10,2) -0.486892 (1,11,1) 1.393652E-05 (1,11,3) -5.258417E-06 (1,12,2) 0.377885 (2,11,2) -1.26092
(1,11,3): (1,10,3) -0.486892 (1,11,2) 5.258417E-06 (1,11,4) 9.010931E-07 (1,12,3) 0.377887 (2,11,3) -1.26092
(1,11,4): (1,10,4) -0.486896 (1,11,3) -9.010931E-07 (1,11,5) 4.074288E-06 (1,12,4) 0.377892 (2,11,4) -1.26092
(1,11,5): (1,10,5) -0.486905 (1,11,4) -4.074288E-06 (1,11,6) 5.936002E-06 (1,12,5) 0.377901 (2,11,5) -1.26092
(1,11,6): (1,10,6) -0.486916 (1,11,5) -5.936002E-06 (1,11,7) 7.385858E-06 (1,12,6) 0.377912 (2,11,6) -1.26091
(1,11,7): (1,10,7) -0.486928 (1,11,6) -7.385858E-06 (1,11,8) 8.041624E-06 (1,12,7) 0.377924 (2,11,7) -1.26091
(1,11,8): (1,10,8) -0.486941 (1,11,7) -8.041624E-06 (1,11,9) 6.192498E-06 (1,12,8) 0.377937 (2,11,8) -1.26090
(1,11,9): (1,10,9) -0.486954 (1,11,8) -6.192498E-06 (1,11,10) -3.314433E-07 (1,12,9) 0.377949 (2,11,9) -1.26090
(1,11,10): (1,10,10) -0.486967 (1,11,9) 3.314433E-07 (1,12,10) 0.377962 (2,11,10) -1.26091
(1,12,1): (1,11,1) -0.377894 (1,12,2) -2.262585E-05 (1,13,1) 0.282839 (2,12,1) -1.27478
(1,12,2): (1,11,2) -0.377885 (1,12,1) 2.262585E-05 (1,12,3) -3.465254E-06 (1,13,2) 0.282836 (2,12,2) -1.27476
(1,12,3): (1,11,3) -0.377887 (1,12,2) 3.465254E-06 (1,12,4) 6.412256E-06 (1,13,3) 0.282840 (2,12,3) -1.27475
(1,12,4): (1,11,4) -0.377892 (1,12,3) -6.412256E-06 (1,12,5) 1.277622E-05 (1,13,4) 0.282845 (2,12,4) -1.27475
(1,12,5): (1,11,5) -0.377901 (1,12,4) -1.277622E-05 (1,12,6) 1.699846E-05 (1,13,5) 0.282853 (2,12,5) -1.27475
(1,12,6): (1,11,6) -0.377912 (1,12,5) -1.699846E-05 (1,12,7) 1.972271E-05 (1,13,6) 0.282862 (2,12,6) -1.27475
(1,12,7): (1,11,7) -0.377924 (1,12,6) -1.972271E-05 (1,12,8) 2.064945E-05 (1,13,7) 0.282871 (2,12,7) -1.27475
(1,12,8): (1,11,8) -0.377937 (1,12,7) -2.064945E-05 (1,12,9) 1.858583E-05 (1,13,8) 0.282881 (2,12,8) -1.27475
(1,12,9): (1,11,9) -0.377949 (1,12,8) -1.858583E-05 (1,12,10) 1.247565E-05 (1,13,9) 0.282891 (2,12,9) -1.27476
(1,12,10): (1,11,10) -0.377962 (1,12,9) -1.247565E-05 (1,13,10) 0.282901 (2,12,10) -1.27476
(1,13,1): (1,12,1) -0.282839 (1,13,2) -2.527761E-05 (1,14,1) 0.188757 (2,13,1) -1.27569
(1,13,2): (1,12,2) -0.282836 (1,13,1) 2.527761E-05 (1,13,3) 2.796825E-08 (1,14,2) 0.188760 (2,13,2) -1.27565
(1,13,3): (1,12,3) -0.282840 (1,13,2) -2.796825E-08 (1,13,4) 1.203040E-05 (1,14,3) 0.188764 (2,13,3) -1.27564
(1,13,4): (1,12,4) -0.282845 (1,13,3) -1.203040E-05 (1,13,5) 2.021963E-05 (1,14,4) 0.188769 (2,13,4) -1.27564
(1,13,5): (1,12,5) -0.282853 (1,13,4) -2.021963E-05 (1,13,6) 2.594056E-05 (1,14,5) 0.188774 (2,13,5) -1.27564
(1,13,6): (1,12,6) -0.282862 (1,13,5) -2.594056E-05 (1,13,7) 2.949620E-05 (1,14,6) 0.188780 (2,13,6) -1.27565
(1,13,7): (1,12,7) -0.282871 (1,13,6) -2.949620E-05 (1,13,8) 3.063314E-05 (1,14,7) 0.188786 (2,13,7) -1.27565
(1,13,8): (1,12,8) -0.282881 (1,13,7) -3.063314E-05 (1,13,9) 2.847314E-05 (1,14,8) 0.188792 (2,13,8) -1.27566
(1,13,9): (1,12,9) -0.282891 (1,13,8) -2.847314E-05 (1,13,10) 2.231162E-05 (1,14,9) 0.188798 (2,13,9) -1.27566
(1,13,10): (1,12,10) -0.282901 (1,13,9) -2.231162E-05 (1,14,10) 0.188804 (2,13,10) -1.27566
(1,14,1): (1,13,1) -0.188757 (1,14,2) -2.231149E-05 (1,15,1) 9.447367E-02 (2,14,1) -1.27546
(1,14,2): (1,13,2) -0.188760 (1,14,1) 2.231149E-05 (1,14,3) 4.475496E-06 (1,15,2) 9.448318E-02 (2,14,2) -1.27540
(1,14,3): (1,13,3) -0.188764 (1,14,2) -4.475496E-06 (1,14,4) 1.650724E-05 (1,15,3) 9.448660E-02 (2,14,3) -1.27539
(1,14,4): (1,13,4) -0.188769 (1,14,3) -1.650724E-05 (1,14,5) 2.526060E-05 (1,15,4) 9.448848E-02 (2,14,4) -1.27539
(1,14,5): (1,13,5) -0.188774 (1,14,4) -2.526060E-05 (1,14,6) 3.161732E-05 (1,15,5) 9.449015E-02 (2,14,5) -1.27540
(1,14,6): (1,13,6) -0.188780 (1,14,5) -3.161732E-05 (1,14,7) 3.554983E-05 (1,15,6) 9.449184E-02 (2,14,6) -1.27540
(1,14,7): (1,13,7) -0.188786 (1,14,6) -3.554983E-05 (1,14,8) 3.675625E-05 (1,15,7) 9.449352E-02 (2,14,7) -1.27541
(1,14,8): (1,13,8) -0.188792 (1,14,7) -3.675625E-05 (1,14,9) 3.452026E-05 (1,15,8) 9.449510E-02 (2,14,8) -1.27542
(1,14,9): (1,13,9) -0.188798 (1,14,8) -3.452026E-05 (1,14,10) 2.819065E-05 (1,15,9) 9.449652E-02 (2,14,9) -1.27543
(1,14,10): (1,13,10) -0.188804 (1,14,9) -2.819065E-05 (1,15,10) 9.449829E-02 (2,14,10) -1.27542
(1,15,1): (1,14,1) -9.447367E-02 (1,15,2) -1.278586E-05 (2,15,1) -1.27526
(1,15,2): (1,14,2) -9.448318E-02 (1,15,1) 1.278586E-05 (1,15,3) 7.888702E-06 (2,15,2) -1.27517
[...]
(3,3,10): (2,3,10) 1.27451 (3,2,10) 1.47590 (3,3,9) -0.653335 (3,4,10) -2.09559
(3,4,1): (2,4,1) 1.27339 (3,3,1) 3.30775 (3,4,2) -1.10576 (3,5,1) -3.46658
(3,4,2): (2,4,2) 1.27469 (3,3,2) 3.98423 (3,4,1) 1.10576 (3,4,3) -1.78113 (3,5,2) -4.57237
(3,4,3): (2,4,3) 1.28332 (3,3,3) 5.25227 (3,4,2) 1.78113 (3,4,4) -1.04086 (3,5,3) -7.26724
(3,4,4): (2,4,4) 1.31147 (3,3,4) 6.42304 (3,4,3) 1.04086 (3,4,5) 2.74532 (3,5,4) -11.5123
(3,4,5): (2,4,5) 1.28475 (3,3,5) 5.26281 (3,4,4) -2.74532 (3,4,6) 3.60735 (3,5,5) -7.40295
(3,4,6): (2,4,6) 1.27651 (3,3,6) 3.92661 (3,4,5) -3.60735 (3,4,7) 3.16475 (3,5,6) -4.75677
(3,4,7): (2,4,7) 1.27469 (3,3,7) 3.01106 (3,4,6) -3.16475 (3,4,8) 2.37701 (3,5,7) -3.49486
(3,4,8): (2,4,8) 1.27441 (3,3,8) 2.48313 (3,4,7) -2.37701 (3,4,9) 1.55690 (3,5,8) -2.93365
(3,4,9): (2,4,9) 1.27432 (3,3,9) 2.20995 (3,4,8) -1.55690 (3,4,10) 0.767696 (3,5,9) -2.69175
(3,4,10): (2,4,10) 1.27441 (3,3,10) 2.09559 (3,4,9) -0.767696 (3,5,10) -2.60130
(3,5,1): (2,5,1) 1.27138 (3,4,1) 3.46658 (3,5,2) -2.21155 (3,6,1) -2.51908
(3,5,2): (2,5,2) 1.28003 (3,4,2) 4.57237 (3,5,1) 2.21155 (3,5,3) -4.47601 (3,6,2) -3.57941
(3,5,3): (2,5,3) 1.34172 (3,4,3) 7.26724 (3,5,2) 4.47601 (3,5,4) -5.28596 (3,6,3) -7.79451
(3,5,4): (2,5,4) 1.67394 (3,4,4) 11.5123 (3,5,3) 5.28596 (3,5,5) 6.85471 (3,6,4) -25.3233
(3,5,5): (2,5,5) 1.34378 (3,4,5) 7.40295 (3,5,4) -6.85471 (3,5,6) 6.25354 (3,6,5) -8.13847
(3,5,6): (2,5,6) 1.28217 (3,4,6) 4.75677 (3,5,5) -6.25354 (3,5,7) 4.42666 (3,6,6) -4.20842
(3,5,7): (2,5,7) 1.27250 (3,4,7) 3.49486 (3,5,6) -4.42666 (3,5,8) 2.93822 (3,6,7) -3.27683
(3,5,8): (2,5,8) 1.27044 (3,4,8) 2.93365 (3,5,7) -2.93822 (3,5,9) 1.79879 (3,6,8) -3.06271
(3,5,9): (2,5,9) 1.26973 (3,4,9) 2.69175 (3,5,8) -1.79879 (3,5,10) 0.858150 (3,6,9) -3.01889
(3,5,10): (2,5,10) 1.26945 (3,4,10) 2.60130 (3,5,9) -0.858150 (3,6,10) -3.01223
(3,6,1): (2,6,1) 1.23479 (3,5,1) 2.51908 (3,6,2) -3.27188 (3,7,1) -0.477163
(3,6,2): (2,6,2) 1.27204 (3,5,2) 3.57941 (3,6,1) 3.27188 (3,6,3) -8.69110 (3,7,2) 0.573854
(3,6,3): (2,6,3) 1.64289 (3,5,3) 7.79451 (3,6,2) 8.69110 (3,6,4) -22.8148 (3,7,3) 4.68888
(3,6,4): (2,6,4) 5.92663 (3,5,4) 25.3233 (3,6,3) 22.8148 (3,6,5) 24.0395 (3,7,4) 21.8951
(3,6,5): (2,6,5) 1.64777 (3,5,5) 8.13847 (3,6,4) -24.0395 (3,6,6) 10.1836 (3,7,5) 4.07095
(3,6,6): (2,6,6) 1.27467 (3,5,6) 4.20842 (3,6,5) -10.1836 (3,6,7) 5.35825 (3,7,6) -0.656217
(3,6,7): (2,6,7) 1.23411 (3,5,7) 3.27683 (3,6,6) -5.35825 (3,6,8) 3.15234 (3,7,7) -2.30405
(3,6,8): (2,6,8) 1.22404 (3,5,8) 3.06271 (3,6,7) -3.15234 (3,6,9) 1.84262 (3,7,8) -2.97648
(3,6,9): (2,6,9) 1.21842 (3,5,9) 3.01889 (3,6,8) -1.84262 (3,6,10) 0.864808 (3,7,9) -3.25900
(3,6,10): (2,6,10) 1.21560 (3,5,10) 3.01223 (3,6,9) -0.864808 (3,7,10) -3.36344
(3,7,1): (2,7,1) 0.832566 (3,6,1) 0.477163 (3,7,2) -2.22086 (3,8,1) 0.912896
(3,7,2): (2,7,2) 0.886921 (3,6,2) -0.573854 (3,7,1) 2.22086 (3,7,3) -4.57607 (3,8,2) 2.04409
(3,7,3): (2,7,3) 1.02453 (3,6,3) -4.68888 (3,7,2) 4.57607 (3,7,4) -5.60851 (3,8,3) 4.70128
(3,7,4): (2,7,4) 1.41489 (3,6,4) -21.8951 (3,7,3) 5.60851 (3,7,5) 6.21536 (3,8,4) 8.65588
(3,7,5): (2,7,5) 1.03625 (3,6,5) -4.07095 (3,7,4) -6.21536 (3,7,6) 5.45642 (3,8,5) 3.79282
(3,7,6): (2,7,6) 0.900350 (3,6,6) 0.656217 (3,7,5) -5.45642 (3,7,7) 3.71042 (3,8,6) 0.189056
(3,7,7): (2,7,7) 0.820906 (3,6,7) 2.30405 (3,7,6) -3.71042 (3,7,8) 2.47991 (3,8,7) -1.89486
(3,7,8): (2,7,8) 0.752653 (3,6,8) 2.97648 (3,7,7) -2.47991 (3,7,9) 1.56010 (3,8,8) -2.81005
(3,7,9): (2,7,9) 0.700615 (3,6,9) 3.25900 (3,7,8) -1.56010 (3,7,10) 0.760365 (3,8,9) -3.16065
(3,7,10): (2,7,10) 0.672602 (3,6,10) 3.36344 (3,7,9) -0.760365 (3,8,10) -3.27666
(3,8,1): (2,8,1) -3.17231 (3,7,1) -0.912896 (3,8,2) -1.08967 (3,9,1) 5.17520
(3,8,2): (2,8,2) -2.70291 (3,7,2) -2.04409 (3,8,1) 1.08967 (3,8,3) -1.91888 (3,9,2) 5.57333
(3,8,3): (2,8,3) -1.88085 (3,7,3) -4.70128 (3,8,2) 1.91888 (3,8,4) -1.65390 (3,9,3) 6.31692
(3,8,4): (2,8,4) -1.18220 (3,7,4) -8.65588 (3,8,3) 1.65390 (3,8,5) 1.35231 (3,9,4) 6.83005
(3,8,5): (2,8,5) -1.75259 (3,7,5) -3.79282 (3,8,4) -1.35231 (3,8,6) 1.85265 (3,9,5) 5.04261
(3,8,6): (2,8,6) -2.54912 (3,7,6) -0.189056 (3,8,5) -1.85265 (3,8,7) 1.62650 (3,9,6) 2.96181
(3,8,7): (2,8,7) -3.25441 (3,7,7) 1.89486 (3,8,6) -1.62650 (3,8,8) 1.56471 (3,9,7) 1.41874
(3,8,8): (2,8,8) -3.92940 (3,7,8) 2.81005 (3,8,7) -1.56471 (3,8,9) 1.20950 (3,9,8) 1.47167
(3,8,9): (2,8,9) -4.45109 (3,7,9) 3.16065 (3,8,8) -1.20950 (3,8,10) 0.644354 (3,9,9) 1.85261
(3,8,10): (2,8,10) -4.72924 (3,7,10) 3.27666 (3,8,9) -0.644354 (3,9,10) 2.09455
(3,9,1): (2,9,1) 0.833597 (3,8,1) -5.17520 (3,9,2) -0.691540 (3,10,1) 5.03324
(3,9,2): (2,9,2) 0.879925 (3,8,2) -5.57333 (3,9,1) 0.691540 (3,9,3) -1.17529 (3,10,2) 5.17141
(3,9,3): (2,9,3) 0.958283 (3,8,3) -6.31692 (3,9,2) 1.17529 (3,9,4) -1.14077 (3,10,3) 5.32084
(3,9,4): (2,9,4) 1.01989 (3,8,4) -6.83005 (3,9,3) 1.14077 (3,9,5) -0.435139 (3,10,4) 5.10107
(3,9,5): (2,9,5) 0.970874 (3,8,5) -5.04261 (3,9,4) 0.435139 (3,9,6) -0.228150 (3,10,5) 3.86060
(3,9,6): (2,9,6) 0.897019 (3,8,6) -2.96181 (3,9,5) 0.228150 (3,9,7) 8.342637E-02 (3,10,6) 1.74873
(3,9,7): (2,9,7) 0.838471 (3,8,7) -1.41874 (3,9,6) -8.342637E-02 (3,9,8) 1.61765 (3,10,7) -0.958601
(3,9,8): (2,9,8) 0.758211 (3,8,8) -1.47167 (3,9,7) -1.61765 (3,9,9) 1.59044 (3,10,8) 0.735901
(3,9,9): (2,9,9) 0.702590 (3,8,9) -1.85261 (3,9,8) -1.59044 (3,9,10) 0.886293 (3,10,9) 1.84940
(3,9,10): (2,9,10) 0.673634 (3,8,10) -2.09455 (3,9,9) -0.886293 (3,10,10) 2.30356
(3,10,1): (2,10,1) 1.23405 (3,9,1) -5.03324 (3,10,2) -0.553375 (3,11,1) 4.35192
(3,10,2): (2,10,2) 1.23867 (3,9,2) -5.17141 (3,10,1) 0.553375 (3,10,3) -1.02586 (3,11,2) 4.39769
(3,10,3): (2,10,3) 1.24648 (3,9,3) -5.32084 (3,10,2) 1.02586 (3,10,4) -1.36054 (3,11,3) 4.40285
(3,10,4): (2,10,4) 1.25259 (3,9,4) -5.10107 (3,10,3) 1.36054 (3,10,5) -1.67561 (3,11,4) 4.15754
(3,10,5): (2,10,5) 1.25227 (3,9,5) -3.86060 (3,10,4) 1.67561 (3,10,6) -2.34002 (3,11,5) 3.26604
(3,10,6): (2,10,6) 1.27459 (3,9,6) -1.74873 (3,10,5) 2.34002 (3,10,7) -2.62391 (3,11,6) 0.750663
(3,10,7): (2,10,7) 1.43327 (3,9,7) 0.958601 (3,10,6) 2.62391 (3,10,8) 3.31215 (3,11,7) -8.33547
(3,10,8): (2,10,8) 1.26084 (3,9,8) -0.735901 (3,10,7) -3.31215 (3,10,9) 2.70394 (3,11,8) 7.694495E-02
(3,10,9): (2,10,9) 1.22551 (3,9,9) -1.84940 (3,10,8) -2.70394 (3,10,10) 1.34046 (3,11,9) 1.98042
(3,10,10): (2,10,10) 1.21819 (3,9,10) -2.30356 (3,10,9) -1.34046 (3,11,10) 2.42129
(3,11,1): (2,11,1) 1.27411 (3,10,1) -4.35192 (3,11,2) -0.507610 (3,12,1) 3.58253
(3,11,2): (2,11,2) 1.27488 (3,10,2) -4.39769 (3,11,1) 0.507610 (3,11,3) -1.02070 (3,12,2) 3.62695
(3,11,3): (2,11,3) 1.27594 (3,10,3) -4.40285 (3,11,2) 1.02070 (3,11,4) -1.60585 (3,12,3) 3.70370
(3,11,4): (2,11,4) 1.27826 (3,10,4) -4.15754 (3,11,3) 1.60585 (3,11,5) -2.56711 (3,12,4) 3.83244
(3,11,5): (2,11,5) 1.29455 (3,10,5) -3.26604 (3,11,4) 2.56711 (3,11,6) -4.85539 (3,12,5) 4.25109
(3,11,6): (2,11,6) 1.47727 (3,10,6) -0.750663 (3,11,5) 4.85539 (3,11,7) -11.7100 (3,12,6) 6.11864
(3,11,7): (2,11,7) 3.62958 (3,10,7) 8.33547 (3,11,6) 11.7100 (3,11,8) 11.7246 (3,12,7) 14.5905
(3,11,8): (2,11,8) 1.47657 (3,10,8) -7.694495E-02 (3,11,7) -11.7246 (3,11,9) 4.60741 (3,12,8) 5.70848
(3,11,9): (2,11,9) 1.29157 (3,10,9) -1.98042 (3,11,8) -4.60741 (3,11,10) 1.78133 (3,12,9) 3.50623
(3,11,10): (2,11,10) 1.27425 (3,10,10) -2.42129 (3,11,9) -1.78133 (3,12,10) 2.92326
(3,12,1): (2,12,1) 1.27817 (3,11,1) -3.58253 (3,12,2) -0.463191 (3,13,1) 2.76256
(3,12,2): (2,12,2) 1.27869 (3,11,2) -3.62695 (3,12,1) 0.463191 (3,12,3) -0.943953 (3,13,2) 2.81840
(3,12,3): (2,12,3) 1.27901 (3,11,3) -3.70370 (3,12,2) 0.943953 (3,12,4) -1.47712 (3,13,3) 2.94752
(3,12,4): (2,12,4) 1.27991 (3,11,4) -3.83244 (3,12,3) 1.47712 (3,12,5) -2.14845 (3,13,4) 3.21381
(3,12,5): (2,12,5) 1.28442 (3,11,5) -4.25109 (3,12,4) 2.14845 (3,12,6) -2.98784 (3,13,5) 3.79580
(3,12,6): (2,12,6) 1.31511 (3,11,6) -6.11864 (3,12,5) 2.98784 (3,12,7) -3.23814 (3,13,6) 5.04426
(3,12,7): (2,12,7) 1.48299 (3,11,7) -14.5905 (3,12,6) 3.23814 (3,12,8) 2.84251 (3,13,7) 7.01628
(3,12,8): (2,12,8) 1.31452 (3,11,8) -5.70848 (3,12,7) -2.84251 (3,12,9) 2.40516 (3,13,8) 4.82080
(3,12,9): (2,12,9) 1.28375 (3,11,9) -3.50623 (3,12,8) -2.40516 (3,12,10) 1.19836 (3,13,9) 3.41918
(3,12,10): (2,12,10) 1.27884 (3,11,10) -2.92326 (3,12,9) -1.19836 (3,13,10) 2.83728
(3,13,1): (2,13,1) 1.27856 (3,12,1) -2.76256 (3,13,2) -0.407353 (3,14,1) 1.88491
(3,13,2): (2,13,2) 1.27922 (3,12,2) -2.81840 (3,13,1) 0.407353 (3,13,3) -0.814825 (3,14,2) 1.93501
(3,13,3): (2,13,3) 1.27942 (3,12,3) -2.94752 (3,13,2) 0.814825 (3,13,4) -1.21083 (3,14,3) 2.05257
(3,13,4): (2,13,4) 1.27970 (3,12,4) -3.21381 (3,13,3) 1.21083 (3,13,5) -1.56646 (3,14,4) 2.27803
(3,13,5): (2,13,5) 1.28076 (3,12,5) -3.79580 (3,13,4) 1.56646 (3,13,6) -1.73938 (3,14,5) 2.67619
(3,13,6): (2,13,6) 1.28492 (3,12,6) -5.04426 (3,13,5) 1.73938 (3,13,7) -1.26612 (3,14,6) 3.27470
(3,13,7): (2,13,7) 1.29848 (3,12,7) -7.01628 (3,13,6) 1.26612 (3,13,8) 0.647019 (3,14,7) 3.79343
(3,13,8): (2,13,8) 1.28465 (3,12,8) -4.82080 (3,13,7) -0.647019 (3,13,9) 1.00355 (3,14,8) 3.16848
(3,13,9): (2,13,9) 1.28050 (3,12,9) -3.41918 (3,13,8) -1.00355 (3,13,10) 0.616460 (3,14,9) 2.51486
(3,13,10): (2,13,10) 1.27894 (3,12,10) -2.83728 (3,13,9) -0.616460 (3,14,10) 2.16909
(3,14,1): (2,14,1) 1.27852 (3,13,1) -1.88491 (3,14,2) -0.357255 (3,15,1) 0.956017
(3,14,2): (2,14,2) 1.27930 (3,13,2) -1.93501 (3,14,1) 0.357255 (3,14,3) -0.697265 (3,15,2) 0.983580
(3,14,3): (2,14,3) 1.27948 (3,13,3) -2.05257 (3,14,2) 0.697265 (3,14,4) -0.985370 (3,15,3) 1.04990
(3,14,4): (2,14,4) 1.27961 (3,13,4) -2.27803 (3,14,3) 0.985370 (3,14,5) -1.16830 (3,15,4) 1.16953
(3,14,5): (2,14,5) 1.27984 (3,13,5) -2.67619 (3,14,4) 1.16830 (3,14,6) -1.14087 (3,15,5) 1.35683
(3,14,6): (2,14,6) 1.28046 (3,13,6) -3.27470 (3,14,5) 1.14087 (3,14,7) -0.747393 (3,15,6) 1.58864
(3,14,7): (2,14,7) 1.28156 (3,13,7) -3.79343 (3,14,6) 0.747393 (3,14,8) 2.206364E-02 (3,15,7) 1.73060
(3,14,8): (2,14,8) 1.28033 (3,13,8) -3.16848 (3,14,7) -2.206364E-02 (3,14,9) 0.349936 (3,15,8) 1.54872
(3,14,9): (2,14,9) 1.27968 (3,13,9) -2.51486 (3,14,8) -0.349936 (3,14,10) 0.270686 (3,15,9) 1.30302
(3,14,10): (2,14,10) 1.27881 (3,13,10) -2.16909 (3,14,9) -0.270686 (3,15,10) 1.15511
(3,15,1): (2,15,1) 1.27743 (3,14,1) -0.956017 (3,15,2) -0.329692
(3,15,2): (2,15,2) 1.27851 (3,14,2) -0.983580 (3,15,1) 0.329692 (3,15,3) -0.630950
(3,15,3): (2,15,3) 1.27873 (3,14,3) -1.04990 (3,15,2) 0.630950 (3,15,4) -0.865735
(3,15,4): (2,15,4) 1.27879 (3,14,4) -1.16953 (3,15,3) 0.865735 (3,15,5) -0.981001
(3,15,5): (2,15,5) 1.27889 (3,14,5) -1.35683 (3,15,4) 0.981001 (3,15,6) -0.909057
(3,15,6): (2,15,6) 1.27899 (3,14,6) -1.58864 (3,15,5) 0.909057 (3,15,7) -0.605433
(3,15,7): (2,15,7) 1.27911 (3,14,7) -1.73060 (3,15,6) 0.605433 (3,15,8) -0.159825
(3,15,8): (2,15,8) 1.27893 (3,14,8) -1.54872 (3,15,7) 0.159825 (3,15,9) 0.104237
(3,15,9): (2,15,9) 1.27880 (3,14,9) -1.30302 (3,15,8) -0.104237 (3,15,10) 0.122784
(3,15,10): (2,15,10) 1.27790 (3,14,10) -1.15511 (3,15,9) -0.122784
1
  HEAD IN LAYER   1 AT END OF TIME STEP   1 IN STRESS PERIOD    3
  ---------------------------------------------------------------------------

            1           2           3           4           5           6           7           8           9          10
 ........................................................................................................................
   1    45.07       45.07       45.07       45.07       45.07       45.07       45.08       45.08       45.09       45.09    
   2    45.06       45.06       45.06       45.06       45.07       45.07       45.08       45.08       45.08       45.08    
   3    45.05       45.05       45.05       45.05       45.06       45.06       45.07       45.08       45.08       45.08    
   4    45.05       45.04       45.04       45.03       45.04       45.05       45.06       45.07       45.07       45.07    
   5    45.04       45.03       45.02       45.00       45.02       45.04       45.05       45.06       45.06       45.07    
   6    45.03       45.02       45.00       44.95       45.00       45.03       45.04       45.05       45.06       45.06    
   7    45.02       45.02       45.01       44.99       45.01       45.02       45.03       45.04       45.04       45.05    
   8    45.01       45.01       45.00       45.00       45.00       45.01       45.01       45.01       45.01       45.01    
   9    45.04       45.04       45.04       45.03       45.03       45.03       45.03       45.04       45.04       45.04    
  10    45.06       45.06       45.05       45.05       45.05       45.04       45.03       45.04       45.05       45.05    
  11    45.07       45.07       45.07       45.06       45.05       45.04       45.02       45.04       45.05       45.06    
  12    45.08       45.08       45.08       45.07       45.07       45.06       45.05       45.06       45.06       45.07    
  13    45.09       45.09       45.09       45.08       45.08       45.07       45.07       45.07       45.07       45.08    
  14    45.09       45.09       45.09       45.09       45.09       45.08       45.08       45.08       45.08       45.08    
  15    45.10       45.10       45.09       45.09       45.09       45.09       45.08       45.08       45.08       45.09    
1
  HEAD IN LAYER   2 AT END OF TIME STEP   1 IN STRESS PERIOD    3
  ---------------------------------------------------------------------------

            1           2           3           4           5           6           7           8           9          10
 ........................................................................................................................
   1    45.06       45.06       45.06       45.06       45.07       45.07       45.08       45.08       45.08       45.08    
   2    45.06       45.06       45.06       45.06       45.06       45.07       45.07       45.08       45.08       45.08    
   3    45.05       45.05       45.05       45.05       45.05       45.06       45.07       45.07       45.08       45.08    
   4    45.04       45.04       45.03       45.03       45.04       45.05       45.06       45.06       45.07       45.07    
   5    45.03       45.03       45.01       45.00       45.02       45.04       45.05       45.06       45.06       45.06    
   6    45.02       45.02       44.99       44.94       45.00       45.02       45.04       45.05       45.05       45.06    
   7    45.02       45.02       45.00       44.99       45.01       45.02       45.03       45.04       45.04       45.04    
   8    45.01       45.01       45.01       45.01       45.01       45.01       45.01       45.02       45.02       45.02    
   9    45.04       45.04       45.03       45.03       45.03       45.03       45.03       45.03       45.04       45.04    
  10    45.06       45.05       45.05       45.05       45.04       45.04       45.03       45.04       45.04       45.05    
  11    45.07       45.07       45.06       45.06       45.05       45.04       45.01       45.04       45.05       45.06    
  12    45.08       45.08       45.07       45.07       45.06       45.06       45.05       45.05       45.06       45.06    
  13    45.09       45.08       45.08       45.08       45.07       45.07       45.07       45.07       45.07       45.07    
  14    45.09       45.09       45.09       45.09       45.08       45.08       45.08       45.08       45.08       45.08    
  15    45.09       45.09       45.09       45.09       45.09       45.08       45.08       45.08       45.08       45.08    
1
  HEAD IN LAYER   3 AT END OF TIME STEP   1 IN STRESS PERIOD    3
  ---------------------------------------------------------------------------

            1           2           3           4           5           6           7           8           9          10
 ........................................................................................................................
   1    45.06       45.06       45.06       45.06       45.06       45.07       45.07       45.08       45.08       45.08    
   2    45.06       45.05       45.05       45.06       45.06       45.06       45.07       45.07       45.08       45.08    
   3    45.05       45.05       45.05       45.05       45.05       45.06       45.06       45.07       45.07       45.07    
   4    45.04       45.04       45.03       45.03       45.04       45.05       45.05       45.06       45.07       45.07    
   5    45.03       45.02       45.01       44.99       45.01       45.03       45.04       45.05       45.06       45.06    
   6    45.02       45.01       44.99       44.92       44.99       45.02       45.04       45.04       45.05       45.05    
   7    45.02       45.01       45.00       44.98       45.00       45.02       45.03       45.04       45.04       45.04    
   8    45.02       45.02       45.01       45.01       45.01       45.02       45.02       45.03       45.03       45.03    
   9    45.04       45.04       45.03       45.03       45.03       45.03       45.03       45.03       45.04       45.04    
  10    45.05       45.05       45.05       45.04       45.04       45.03       45.02       45.03       45.04       45.05    
  11    45.06       45.06       45.06       45.06       45.05       45.03       45.00       45.03       45.05       45.05    
  12    45.07       45.07       45.07       45.07       45.06       45.05       45.04       45.05       45.06       45.06    
  13    45.08       45.08       45.08       45.08       45.07       45.07       45.06       45.06       45.07       45.07    
  14    45.09       45.09       45.08       45.08       45.08       45.08       45.07       45.07       45.07       45.08    
  15    45.09       45.09       45.09       45.09       45.08       45.08       45.08       45.08       45.08       45.08    

 HEAD WILL BE SAVED ON UNIT 1015 AT END OF TIME STEP    1, STRESS PERIOD    3


  VOLUME BUDGET FOR ENTIRE MODEL AT END OF TIME STEP    1, STRESS PERIOD   3
  ---------------------------------------------------------------------------------------------------

     CUMULATIVE VOLUME      L**3       RATES FOR THIS TIME STEP      L**3/T          PACKAGE NAME    
     ------------------                 ------------------------                     ----------------

           IN:                                      IN:
           ---                                      ---
                 WEL =           0.0000                   WEL =           0.0000     WEL_0           
                 RIV =           0.0000                   RIV =           0.0000     RIV_0           
                 RCH =         616.4384                   RCH =         205.4795     RCH             

            TOTAL IN =         616.4384              TOTAL IN =         205.4795

          OUT:                                     OUT:
          ----                                     ----
                 WEL =         250.0000                   WEL =         150.0000     WEL_0           
                 RIV =         365.9862                   RIV =          55.7698     RIV_0           
                 RCH =           0.0000                   RCH =           0.0000     RCH             

           TOTAL OUT =         615.9862             TOTAL OUT =         205.7698

            IN - OUT =           0.4521              IN - OUT =           0.2903

 PERCENT DISCREPANCY =           0.07     PERCENT DISCREPANCY =          -0.14




         TIME SUMMARY AT END OF TIME STEP    1 IN STRESS PERIOD    3
                    SECONDS     MINUTES      HOURS       DAYS        YEARS
                    -----------------------------------------------------------
   TIME STEP LENGTH  86400.      1440.0      24.000      1.0000     2.73785E-03
 STRESS PERIOD TIME  86400.      1440.0      24.000      1.0000     2.73785E-03
         TOTAL TIME 2.59200E+05  4320.0      72.000      3.0000     8.21355E-03


end timestep

